<?xml version="1.0" encoding="UTF-8"?>

<!-- generated on 2023-07-07 15:39:41 by Eclipse SUMO netedit Version 1.18.0
-->

<additional xmlns:xsi="http://www.w3.org/2001/XMLSchema-instance" xsi:noNamespaceSchemaLocation="http://sumo.dlr.de/xsd/additional_file.xsd">
    <!-- Shapes -->
    <poly id="129921627" type="building" color="255,230,230" fill="1" layer="-1.00" shape="8853.050000,7375.220000 8862.030000,7377.760000 8861.340000,7380.140000 8871.400000,7382.980000 8871.920000,7381.110000 8881.230000,7383.730000 8884.290000,7372.940000 8855.960000,7364.940000 8853.050000,7375.220000"/>
    <poly id="129921628" type="building" color="255,230,230" fill="1" layer="-1.00" shape="8788.600000,7409.770000 8800.280000,7413.610000 8814.400000,7368.300000 8802.530000,7364.460000 8788.600000,7409.770000"/>
    <poly id="129921629" type="building" color="255,230,230" fill="1" layer="-1.00" shape="8884.800000,7384.820000 8893.940000,7387.410000 8893.200000,7390.020000 8904.180000,7393.120000 8904.840000,7390.830000 8913.640000,7393.320000 8916.490000,7383.310000 8887.550000,7375.130000 8884.800000,7384.820000"/>
    <poly id="129921633" type="building" color="255,230,230" fill="1" layer="-1.00" shape="8881.280000,7456.520000 8892.970000,7460.010000 8906.510000,7414.880000 8894.820000,7411.390000 8881.280000,7456.520000"/>
    <poly id="129921638" type="building" color="255,230,230" fill="1" layer="-1.00" shape="8820.070000,7365.640000 8829.110000,7368.390000 8828.560000,7370.160000 8838.700000,7373.260000 8839.240000,7371.510000 8848.660000,7374.390000 8851.970000,7363.560000 8823.380000,7354.840000 8820.070000,7365.640000"/>
    <poly id="169963863#1" type="building" color="255,230,230" fill="1" layer="-1.00" shape="8814.470000,6946.340000 8808.850000,6949.090000 8808.640000,6948.720000 8809.770000,6948.160000 8806.140000,6940.790000 8794.830000,6933.210000 8805.760000,6916.880000 8819.480000,6926.060000 8820.240000,6924.920000 8824.220000,6927.570000 8823.450000,6928.710000 8844.030000,6942.480000 8839.740000,6948.880000 8839.940000,6949.050000 8840.590000,6949.960000 8840.760000,6950.950000 8840.420000,6951.920000 8839.670000,6952.590000 8838.690000,6952.790000 8837.650000,6952.460000 8837.400000,6952.400000 8833.110000,6958.820000 8814.470000,6946.340000"/>
    <poly id="169963866#1" type="building" color="255,230,230" fill="1" layer="-1.00" shape="8782.930000,6997.370000 8782.970000,6997.250000 8778.590000,6995.340000 8791.640000,6965.710000 8796.010000,6967.650000 8800.480000,6957.440000 8842.250000,6975.790000 8824.660000,7015.660000 8782.930000,6997.370000"/>
    <poly id="170324894" type="building" color="255,230,230" fill="1" layer="-1.00" shape="9744.170000,7871.410000 9773.230000,7834.490000 9797.010000,7853.090000 9798.330000,7851.400000 9826.790000,7873.660000 9818.590000,7884.090000 9806.630000,7874.730000 9799.050000,7884.370000 9790.650000,7877.800000 9781.280000,7889.710000 9781.340000,7896.080000 9771.380000,7896.110000 9771.380000,7882.070000 9770.170000,7881.010000 9786.720000,7859.970000 9776.330000,7851.830000 9772.490000,7856.710000 9775.870000,7859.360000 9766.410000,7871.380000 9763.440000,7869.050000 9754.950000,7879.840000 9744.170000,7871.410000"/>
    <poly id="188466548" type="building" color="255,230,230" fill="1" layer="-1.00" shape="8633.860000,7461.350000 8637.290000,7451.540000 8644.480000,7454.450000 8641.300000,7447.390000 8650.740000,7443.070000 8660.430000,7465.460000 8658.400000,7468.590000 8633.860000,7461.350000"/>
    <poly id="188466552" type="building" color="255,230,230" fill="1" layer="-1.00" shape="8662.230000,7419.160000 8671.290000,7415.250000 8669.810000,7411.580000 8671.400000,7410.930000 8669.520000,7406.300000 8667.930000,7406.940000 8658.310000,7410.850000 8662.230000,7419.160000"/>
    <poly id="188466553" type="building" color="255,230,230" fill="1" layer="-1.00" shape="8632.270000,7424.740000 8627.340000,7412.910000 8637.630000,7410.610000 8643.300000,7424.930000 8632.270000,7424.740000"/>
    <poly id="188466556" type="building" color="255,230,230" fill="1" layer="-1.00" shape="8641.300000,7447.390000 8632.270000,7424.740000 8643.300000,7424.930000 8650.740000,7443.070000 8641.300000,7447.390000"/>
    <poly id="188466557" type="building" color="255,230,230" fill="1" layer="-1.00" shape="8658.290000,7407.360000 8681.040000,7397.330000 8681.020000,7391.020000 8666.040000,7397.360000 8662.490000,7388.510000 8652.500000,7393.150000 8655.480000,7400.460000 8658.290000,7407.360000"/>
    <poly id="188466559" type="building" color="255,230,230" fill="1" layer="-1.00" shape="8622.670000,7379.730000 8629.390000,7394.220000 8615.550000,7390.370000 8610.260000,7382.620000 8622.670000,7379.730000"/>
    <poly id="188466561" type="building" color="255,230,230" fill="1" layer="-1.00" shape="8595.030000,7491.790000 8601.080000,7473.290000 8617.030000,7478.420000 8610.420000,7495.990000 8595.030000,7491.790000"/>
    <poly id="203362734" type="building" color="255,230,230" fill="1" layer="-1.00" shape="8938.880000,7467.460000 8934.720000,7454.420000 8923.500000,7458.070000 8926.860000,7468.260000 8932.430000,7466.430000 8933.360000,7469.230000 8938.880000,7467.460000"/>
    <poly id="203362735" type="building" color="255,230,230" fill="1" layer="-1.00" shape="9008.470000,7430.870000 9015.370000,7428.650000 9018.780000,7439.210000 9011.890000,7441.420000 9008.470000,7430.870000"/>
    <poly id="203362736" type="building" color="255,230,230" fill="1" layer="-1.00" shape="9015.370000,7428.650000 9022.270000,7426.430000 9025.680000,7436.990000 9018.780000,7439.210000 9015.370000,7428.650000"/>
    <poly id="203362737" type="building" color="255,230,230" fill="1" layer="-1.00" shape="8980.890000,7439.730000 8987.780000,7437.520000 8991.190000,7448.080000 8984.290000,7450.290000 8980.890000,7439.730000"/>
    <poly id="203362739" type="building" color="255,230,230" fill="1" layer="-1.00" shape="9022.270000,7426.430000 9029.160000,7424.220000 9032.570000,7434.770000 9025.680000,7436.990000 9022.270000,7426.430000"/>
    <poly id="203362740" type="building" color="255,230,230" fill="1" layer="-1.00" shape="8987.780000,7437.520000 8994.680000,7435.300000 8998.090000,7445.860000 8991.190000,7448.080000 8987.780000,7437.520000"/>
    <poly id="203362741" type="building" color="255,230,230" fill="1" layer="-1.00" shape="8994.680000,7435.300000 9001.570000,7433.080000 9004.990000,7443.640000 8998.090000,7445.860000 8994.680000,7435.300000"/>
    <poly id="203362743" type="building" color="255,230,230" fill="1" layer="-1.00" shape="9056.820000,7449.360000 9047.210000,7454.750000 9055.110000,7468.780000 9064.730000,7463.390000 9056.820000,7449.360000"/>
    <poly id="203362744" type="building" color="255,230,230" fill="1" layer="-1.00" shape="9049.750000,7412.400000 9059.500000,7423.340000 9070.600000,7413.500000 9060.860000,7402.550000 9049.750000,7412.400000"/>
    <poly id="203362745" type="building" color="255,230,230" fill="1" layer="-1.00" shape="9075.690000,7454.790000 9066.420000,7460.080000 9056.700000,7443.120000 9065.960000,7437.830000 9075.690000,7454.790000"/>
    <poly id="203362747" type="building" color="255,230,230" fill="1" layer="-1.00" shape="9001.570000,7433.080000 9008.470000,7430.870000 9011.890000,7441.420000 9004.990000,7443.640000 9001.570000,7433.080000"/>
    <poly id="203886043" type="building" color="255,230,230" fill="1" layer="-1.00" shape="9124.610000,7792.000000 9113.590000,7796.280000 9117.740000,7806.930000 9128.760000,7802.660000 9124.610000,7792.000000"/>
    <poly id="203886044" type="building" color="255,230,230" fill="1" layer="-1.00" shape="8890.530000,7643.670000 8880.680000,7620.030000 8889.980000,7616.150000 8888.960000,7613.700000 8903.100000,7607.790000 8913.970000,7633.890000 8890.530000,7643.670000"/>
    <poly id="203886045" type="building" color="255,230,230" fill="1" layer="-1.00" shape="8854.230000,7444.470000 8850.670000,7457.560000 8871.200000,7463.120000 8874.760000,7450.040000 8854.230000,7444.470000"/>
    <poly id="203886046" type="building" color="255,230,230" fill="1" layer="-1.00" shape="9094.460000,7635.700000 9104.000000,7632.530000 9107.160000,7641.950000 9097.620000,7645.130000 9094.460000,7635.700000"/>
    <poly id="203886047" type="building" color="255,230,230" fill="1" layer="-1.00" shape="8863.020000,7296.890000 8861.410000,7302.250000 8880.750000,7308.040000 8882.370000,7302.670000 8863.020000,7296.890000"/>
    <poly id="203886048" type="building" color="255,230,230" fill="1" layer="-1.00" shape="8958.810000,7391.460000 8959.190000,7390.380000 8962.190000,7380.060000 8937.850000,7372.520000 8934.370000,7384.230000 8958.810000,7391.460000"/>
    <poly id="203886049" type="building" color="255,230,230" fill="1" layer="-1.00" shape="8870.000000,7508.180000 8867.000000,7517.590000 8860.040000,7515.390000 8861.030000,7512.070000 8859.140000,7511.470000 8857.250000,7510.880000 8854.580000,7519.410000 8850.040000,7517.950000 8850.300000,7516.930000 8845.980000,7515.560000 8851.410000,7497.890000 8855.700000,7499.310000 8856.120000,7498.060000 8860.770000,7499.530000 8858.080000,7508.130000 8861.820000,7509.300000 8863.100000,7506.020000 8870.000000,7508.180000"/>
    <poly id="203886050" type="building" color="255,230,230" fill="1" layer="-1.00" shape="8883.330000,7335.170000 8877.750000,7354.490000 8889.330000,7357.650000 8894.670000,7338.720000 8883.330000,7335.170000"/>
    <poly id="203886051" type="building" color="255,230,230" fill="1" layer="-1.00" shape="8888.950000,7317.360000 8883.330000,7335.170000 8894.670000,7338.720000 8900.290000,7320.910000 8888.950000,7317.360000"/>
    <poly id="203886052" type="building" color="255,230,230" fill="1" layer="-1.00" shape="8916.020000,7344.870000 8909.800000,7363.220000 8920.760000,7366.920000 8926.990000,7348.570000 8916.020000,7344.870000"/>
    <poly id="203886053" type="building" color="255,230,230" fill="1" layer="-1.00" shape="8921.740000,7327.830000 8916.020000,7344.870000 8926.990000,7348.570000 8932.620000,7331.370000 8921.740000,7327.830000"/>
    <poly id="203886054" type="building" color="255,230,230" fill="1" layer="-1.00" shape="8867.000000,7517.590000 8870.000000,7508.180000 8876.900000,7510.330000 8875.890000,7513.550000 8879.650000,7514.820000 8882.460000,7506.080000 8887.260000,7507.670000 8886.890000,7508.880000 8891.540000,7510.210000 8886.130000,7527.800000 8881.960000,7526.500000 8881.590000,7527.760000 8876.490000,7526.100000 8879.040000,7517.640000 8877.060000,7517.010000 8875.090000,7516.390000 8873.970000,7519.790000 8867.000000,7517.590000"/>
    <poly id="203886055" type="building" color="255,230,230" fill="1" layer="-1.00" shape="8945.420000,7354.410000 8951.370000,7356.200000 8954.730000,7345.030000 8948.780000,7343.240000 8945.420000,7354.410000"/>
    <poly id="203886056" type="building" color="255,230,230" fill="1" layer="-1.00" shape="8951.370000,7356.200000 8957.320000,7357.990000 8960.680000,7346.810000 8954.730000,7345.030000 8951.370000,7356.200000"/>
    <poly id="203886057" type="building" color="255,230,230" fill="1" layer="-1.00" shape="8957.320000,7357.990000 8963.270000,7359.770000 8966.640000,7348.600000 8960.680000,7346.810000 8957.320000,7357.990000"/>
    <poly id="203886058" type="building" color="255,230,230" fill="1" layer="-1.00" shape="8963.270000,7359.770000 8969.230000,7361.550000 8972.600000,7350.390000 8966.640000,7348.600000 8963.270000,7359.770000"/>
    <poly id="203886059" type="building" color="255,230,230" fill="1" layer="-1.00" shape="8969.230000,7361.550000 8975.190000,7363.330000 8978.550000,7352.170000 8972.600000,7350.390000 8969.230000,7361.550000"/>
    <poly id="203886060" type="building" color="255,230,230" fill="1" layer="-1.00" shape="8938.880000,7467.460000 8944.390000,7465.710000 8943.520000,7462.950000 8946.700000,7461.940000 8943.430000,7451.670000 8934.720000,7454.420000 8938.880000,7467.460000"/>
    <poly id="203886061" type="building" color="255,230,230" fill="1" layer="-1.00" shape="8978.570000,7369.230000 8984.530000,7370.920000 8987.790000,7359.550000 8981.830000,7357.840000 8978.570000,7369.230000"/>
    <poly id="203886062" type="building" color="255,230,230" fill="1" layer="-1.00" shape="8984.530000,7370.920000 8990.490000,7372.630000 8993.750000,7361.240000 8987.790000,7359.550000 8984.530000,7370.920000"/>
    <poly id="203886063" type="building" color="255,230,230" fill="1" layer="-1.00" shape="8990.490000,7372.630000 8996.450000,7374.320000 8999.710000,7362.940000 8993.750000,7361.240000 8990.490000,7372.630000"/>
    <poly id="203886064" type="building" color="255,230,230" fill="1" layer="-1.00" shape="8996.450000,7374.320000 9002.410000,7376.030000 9005.670000,7364.640000 8999.710000,7362.940000 8996.450000,7374.320000"/>
    <poly id="203886065" type="building" color="255,230,230" fill="1" layer="-1.00" shape="9002.410000,7376.030000 9008.370000,7377.730000 9011.630000,7366.340000 9005.670000,7364.640000 9002.410000,7376.030000"/>
    <poly id="203886066" type="building" color="255,230,230" fill="1" layer="-1.00" shape="8946.700000,7461.940000 8950.230000,7460.820000 8951.160000,7463.690000 8956.420000,7462.000000 8952.210000,7448.900000 8943.430000,7451.670000 8946.700000,7461.940000"/>
    <poly id="203886067" type="building" color="255,230,230" fill="1" layer="-1.00" shape="8956.420000,7462.000000 8961.830000,7460.350000 8960.900000,7457.450000 8964.380000,7456.350000 8961.000000,7446.130000 8952.210000,7448.900000 8956.420000,7462.000000"/>
    <poly id="203886068" type="building" color="255,230,230" fill="1" layer="-1.00" shape="8969.730000,7443.360000 8961.000000,7446.130000 8964.380000,7456.350000 8966.930000,7455.540000 8967.870000,7458.480000 8973.780000,7456.650000 8969.730000,7443.360000"/>
    <poly id="203886073" type="building" color="255,230,230" fill="1" layer="-1.00" shape="9035.320000,7470.330000 9039.660000,7467.890000 9032.070000,7454.450000 9027.730000,7456.890000 9035.320000,7470.330000"/>
    <poly id="203886074" type="building" color="255,230,230" fill="1" layer="-1.00" shape="9039.660000,7467.890000 9044.340000,7465.260000 9036.750000,7451.820000 9032.070000,7454.450000 9039.660000,7467.890000"/>
    <poly id="203886075" type="building" color="255,230,230" fill="1" layer="-1.00" shape="9135.630000,7787.730000 9128.660000,7790.430000 9124.610000,7792.000000 9128.760000,7802.660000 9139.780000,7798.380000 9135.630000,7787.730000"/>
    <poly id="203886076" type="building" color="255,230,230" fill="1" layer="-1.00" shape="9091.880000,7647.220000 9083.470000,7649.930000 9080.170000,7639.760000 9088.580000,7637.060000 9091.880000,7647.220000"/>
    <poly id="203886077" type="building" color="255,230,230" fill="1" layer="-1.00" shape="8887.130000,7472.330000 8904.250000,7477.680000 8899.820000,7491.780000 8882.700000,7486.430000 8887.130000,7472.330000"/>
    <poly id="203886078" type="building" color="255,230,230" fill="1" layer="-1.00" shape="8870.020000,7466.980000 8887.130000,7472.330000 8882.700000,7486.430000 8865.590000,7481.080000 8870.020000,7466.980000"/>
    <poly id="203886079" type="building" color="255,230,230" fill="1" layer="-1.00" shape="8860.200000,7467.720000 8847.410000,7463.970000 8843.160000,7478.360000 8855.960000,7482.110000 8860.200000,7467.720000"/>
    <poly id="203886080" type="building" color="255,230,230" fill="1" layer="-1.00" shape="8859.100000,7412.520000 8853.800000,7429.970000 8865.440000,7433.460000 8870.700000,7416.030000 8859.100000,7412.520000"/>
    <poly id="203886081" type="building" color="255,230,230" fill="1" layer="-1.00" shape="8864.410000,7395.050000 8859.100000,7412.520000 8870.700000,7416.030000 8876.010000,7398.550000 8864.410000,7395.050000"/>
    <poly id="203886082" type="building" color="255,230,230" fill="1" layer="-1.00" shape="8826.710000,7402.120000 8821.170000,7419.320000 8833.090000,7423.140000 8838.580000,7405.840000 8826.710000,7402.120000"/>
    <poly id="203886083" type="building" color="255,230,230" fill="1" layer="-1.00" shape="8832.200000,7384.630000 8826.710000,7402.120000 8838.580000,7405.840000 8844.070000,7388.340000 8832.200000,7384.630000"/>
    <poly id="203886084" type="building" color="255,230,230" fill="1" layer="-1.00" shape="8850.730000,7325.940000 8844.920000,7345.200000 8856.380000,7348.550000 8861.960000,7329.300000 8850.730000,7325.940000"/>
    <poly id="203886085" type="building" color="255,230,230" fill="1" layer="-1.00" shape="8856.140000,7307.920000 8850.730000,7325.940000 8861.960000,7329.300000 8867.380000,7311.280000 8856.140000,7307.920000"/>
    <poly id="204188179" type="building" color="255,230,230" fill="1" layer="-1.00" shape="8959.190000,7390.380000 8965.000000,7392.140000 8968.520000,7380.230000 8962.690000,7378.480000 8962.190000,7380.060000 8959.190000,7390.380000"/>
    <poly id="204188180" type="building" color="255,230,230" fill="1" layer="-1.00" shape="8965.000000,7392.140000 8970.810000,7393.910000 8974.350000,7381.980000 8968.520000,7380.230000 8965.000000,7392.140000"/>
    <poly id="204188181" type="building" color="255,230,230" fill="1" layer="-1.00" shape="8970.810000,7393.910000 8976.610000,7395.670000 8980.170000,7383.720000 8974.350000,7381.980000 8970.810000,7393.910000"/>
    <poly id="204188182" type="building" color="255,230,230" fill="1" layer="-1.00" shape="8976.610000,7395.670000 8982.420000,7397.430000 8986.000000,7385.470000 8980.170000,7383.720000 8976.610000,7395.670000"/>
    <poly id="204188183" type="building" color="255,230,230" fill="1" layer="-1.00" shape="8982.420000,7397.430000 8988.220000,7399.200000 8991.830000,7387.210000 8986.000000,7385.470000 8982.420000,7397.430000"/>
    <poly id="204188184" type="building" color="255,230,230" fill="1" layer="-1.00" shape="8988.220000,7399.200000 8994.030000,7400.970000 8997.650000,7388.960000 8991.830000,7387.210000 8988.220000,7399.200000"/>
    <poly id="204188185" type="building" color="255,230,230" fill="1" layer="-1.00" shape="8994.030000,7400.970000 8999.830000,7402.730000 9003.480000,7390.700000 8997.650000,7388.960000 8994.030000,7400.970000"/>
    <poly id="204188186" type="building" color="255,230,230" fill="1" layer="-1.00" shape="8999.830000,7402.730000 9005.640000,7404.500000 9009.300000,7392.450000 9003.480000,7390.700000 8999.830000,7402.730000"/>
    <poly id="204188187" type="building" color="255,230,230" fill="1" layer="-1.00" shape="9005.640000,7404.500000 9011.450000,7406.260000 9015.130000,7394.200000 9009.300000,7392.450000 9005.640000,7404.500000"/>
    <poly id="204188188" type="building" color="255,230,230" fill="1" layer="-1.00" shape="8925.090000,7398.990000 8922.280000,7408.880000 8942.490000,7414.580000 8945.300000,7404.690000 8925.090000,7398.990000"/>
    <poly id="204188189" type="building" color="255,230,230" fill="1" layer="-1.00" shape="8946.220000,7411.510000 8951.990000,7413.310000 8955.770000,7401.320000 8949.700000,7399.420000 8946.220000,7411.510000"/>
    <poly id="204188190" type="building" color="255,230,230" fill="1" layer="-1.00" shape="8951.990000,7413.310000 8957.470000,7415.030000 8961.240000,7403.040000 8955.770000,7401.320000 8951.990000,7413.310000"/>
    <poly id="204188191" type="building" color="255,230,230" fill="1" layer="-1.00" shape="8957.470000,7415.030000 8963.550000,7416.930000 8967.020000,7404.840000 8961.240000,7403.040000 8957.470000,7415.030000"/>
    <poly id="204188192" type="building" color="255,230,230" fill="1" layer="-1.00" shape="8969.730000,7443.360000 8973.780000,7456.650000 8979.740000,7454.800000 8978.780000,7451.790000 8982.600000,7450.580000 8979.340000,7440.320000 8969.730000,7443.360000"/>
    <poly id="207529567#1" type="building" color="255,230,230" fill="1" layer="-1.00" shape="8795.100000,7821.220000 8790.340000,7808.880000 8778.700000,7813.450000 8777.200000,7828.810000 8795.100000,7821.220000"/>
    <poly id="232627276" type="building" color="255,230,230" fill="1" layer="-1.00" shape="8879.130000,6972.240000 8879.270000,6971.850000 8878.870000,6970.720000 8879.620000,6968.990000 8880.730000,6968.500000 8880.860000,6968.230000 8880.630000,6968.120000 8882.610000,6963.670000 8888.230000,6966.120000 8888.840000,6964.690000 8890.560000,6965.420000 8890.470000,6965.620000 8891.540000,6966.150000 8891.360000,6966.550000 8893.940000,6967.650000 8894.990000,6968.690000 8894.950000,6969.820000 8892.510000,6975.590000 8890.110000,6974.580000 8889.280000,6976.630000 8879.130000,6972.240000"/>
    <poly id="232711207" type="building" color="255,230,230" fill="1" layer="-1.00" shape="8750.940000,7775.100000 8754.970000,7784.490000 8772.940000,7776.790000 8768.900000,7767.410000 8750.940000,7775.100000"/>
    <poly id="239206704" type="building" color="255,230,230" fill="1" layer="-1.00" shape="8739.560000,7504.790000 8743.430000,7491.910000 8748.590000,7493.480000 8749.970000,7492.730000 8750.730000,7494.120000 8753.380000,7494.910000 8753.550000,7494.970000 8753.030000,7496.680000 8755.110000,7497.310000 8755.050000,7497.490000 8751.700000,7508.470000 8739.560000,7504.790000"/>
    <poly id="239206705" type="building" color="255,230,230" fill="1" layer="-1.00" shape="8755.050000,7497.490000 8755.110000,7497.310000 8753.030000,7496.680000 8753.550000,7494.970000 8753.380000,7494.910000 8756.690000,7483.890000 8761.460000,7485.320000 8768.890000,7487.600000 8764.990000,7500.470000 8755.050000,7497.490000"/>
    <poly id="239206706" type="building" color="255,230,230" fill="1" layer="-1.00" shape="8787.220000,7501.020000 8784.260000,7511.020000 8787.600000,7511.980000 8785.530000,7519.010000 8776.570000,7516.390000 8778.480000,7509.910000 8775.170000,7508.920000 8778.270000,7498.380000 8774.960000,7497.410000 8777.570000,7488.480000 8792.520000,7492.860000 8792.170000,7494.050000 8798.590000,7495.940000 8797.580000,7499.360000 8804.080000,7501.260000 8801.450000,7510.200000 8794.440000,7508.160000 8794.650000,7507.490000 8795.470000,7504.750000 8789.000000,7502.810000 8789.360000,7501.650000 8787.220000,7501.020000"/>
    <poly id="244769621" type="building" color="255,230,230" fill="1" layer="-1.00" shape="9003.450000,8372.850000 9009.560000,8372.890000 9009.670000,8356.810000 9003.560000,8356.770000 9003.450000,8372.850000"/>
    <poly id="249025455" type="building" color="255,230,230" fill="1" layer="-1.00" shape="8555.250000,7330.700000 8559.690000,7338.790000 8574.130000,7342.880000 8572.730000,7337.800000 8563.470000,7334.720000 8560.770000,7328.700000 8555.250000,7330.700000"/>
    <poly id="249025471" type="building" color="255,230,230" fill="1" layer="-1.00" shape="8575.150000,7313.140000 8586.510000,7307.670000 8597.960000,7331.270000 8596.600000,7331.930000 8597.900000,7334.610000 8587.890000,7339.440000 8587.410000,7338.440000 8581.090000,7341.490000 8579.840000,7338.920000 8575.410000,7341.060000 8573.630000,7337.380000 8584.380000,7332.200000 8575.150000,7313.140000"/>
    <poly id="249025472" type="building" color="255,230,230" fill="1" layer="-1.00" shape="8585.310000,7368.340000 8582.570000,7376.790000 8564.050000,7370.800000 8565.920000,7365.030000 8570.250000,7366.430000 8571.120000,7363.760000 8585.310000,7368.340000"/>
    <poly id="255698241" type="building" color="255,230,230" fill="1" layer="-1.00" shape="9061.280000,7010.140000 9058.910000,7013.470000 9047.810000,7004.140000 9041.140000,7012.040000 9057.300000,7024.830000 9062.490000,7017.690000 9061.280000,7010.140000"/>
    <poly id="255698246" type="building" color="255,230,230" fill="1" layer="-1.00" shape="9014.340000,6971.120000 9009.690000,6967.860000 9010.780000,6966.310000 9008.280000,6964.560000 9008.790000,6963.840000 9000.730000,6958.210000 8992.720000,6969.590000 8998.390000,6973.560000 8997.950000,6974.190000 9006.370000,6980.090000 9008.520000,6977.030000 9009.630000,6977.810000 9014.340000,6971.120000"/>
    <poly id="255698248" type="building" color="255,230,230" fill="1" layer="-1.00" shape="9022.360000,6983.850000 9015.710000,6993.380000 9023.740000,6998.950000 9030.490000,7003.640000 9037.140000,6994.110000 9033.750000,6991.750000 9035.060000,6989.870000 9027.550000,6984.660000 9026.230000,6986.540000 9022.360000,6983.850000"/>
    <poly id="255698254" type="building" color="255,230,230" fill="1" layer="-1.00" shape="9000.730000,6958.210000 8992.110000,6952.220000 8991.630000,6952.900000 8989.070000,6951.120000 8988.010000,6952.650000 8983.330000,6949.400000 8978.650000,6956.120000 8979.810000,6956.930000 8977.650000,6960.040000 8986.020000,6965.840000 8986.460000,6965.190000 8992.720000,6969.590000 9000.730000,6958.210000"/>
    <poly id="256141707" type="building" color="255,230,230" fill="1" layer="-1.00" shape="9586.250000,7431.370000 9591.700000,7420.450000 9594.820000,7414.210000 9592.310000,7412.960000 9596.460000,7404.650000 9586.040000,7399.470000 9583.160000,7405.230000 9584.430000,7405.860000 9577.680000,7419.360000 9579.960000,7420.490000 9576.850000,7426.710000 9586.250000,7431.370000"/>
    <poly id="256141718" type="building" color="255,230,230" fill="1" layer="-1.00" shape="9279.600000,7214.600000 9286.150000,7207.680000 9295.140000,7216.150000 9288.600000,7223.070000 9279.600000,7214.600000"/>
    <poly id="256141721" type="building" color="255,230,230" fill="1" layer="-1.00" shape="9573.750000,7384.800000 9579.440000,7373.530000 9594.950000,7381.620000 9589.550000,7392.440000 9573.750000,7384.800000"/>
    <poly id="256141725" type="building" color="255,230,230" fill="1" layer="-1.00" shape="9595.790000,7379.940000 9606.220000,7385.120000 9596.460000,7404.650000 9586.040000,7399.470000 9589.550000,7392.440000 9594.950000,7381.620000 9595.790000,7379.940000"/>
    <poly id="256141726" type="building" color="255,230,230" fill="1" layer="-1.00" shape="9587.390000,7520.810000 9595.860000,7511.610000 9599.280000,7511.470000 9600.490000,7512.700000 9600.660000,7512.490000 9606.970000,7518.340000 9598.170000,7528.300000 9597.070000,7529.540000 9587.390000,7520.810000"/>
    <poly id="256141727" type="building" color="255,230,230" fill="1" layer="-1.00" shape="9610.460000,7429.780000 9620.740000,7434.880000 9621.390000,7433.600000 9626.370000,7436.080000 9627.340000,7434.140000 9632.250000,7436.580000 9634.330000,7432.420000 9636.690000,7433.590000 9640.010000,7426.950000 9627.750000,7420.860000 9626.560000,7423.240000 9622.410000,7421.190000 9621.840000,7422.320000 9615.710000,7419.270000 9597.870000,7410.410000 9596.950000,7409.940000 9594.820000,7414.210000 9591.700000,7420.450000 9592.540000,7420.870000 9610.460000,7429.780000"/>
    <poly id="256141731" type="building" color="255,230,230" fill="1" layer="-1.00" shape="8993.830000,7023.260000 9001.320000,7013.000000 9001.560000,7013.180000 9000.760000,7014.270000 9003.760000,7016.430000 9004.560000,7015.350000 9004.810000,7015.540000 9004.580000,7015.840000 9013.060000,7022.030000 9013.260000,7021.760000 9013.520000,7021.900000 9012.690000,7023.020000 9016.100000,7025.520000 9009.450000,7034.550000 8993.830000,7023.260000"/>
    <poly id="261382487" type="building" color="255,230,230" fill="1" layer="-1.00" shape="8619.810000,7303.660000 8622.270000,7308.180000 8623.940000,7307.280000 8627.200000,7313.260000 8629.380000,7317.280000 8629.780000,7318.000000 8619.090000,7323.810000 8616.290000,7318.690000 8610.770000,7308.560000 8619.810000,7303.660000"/>
    <poly id="261389663" type="building" color="255,230,230" fill="1" layer="-1.00" shape="8674.850000,7279.920000 8683.880000,7271.090000 8679.920000,7267.050000 8678.420000,7268.520000 8674.090000,7264.110000 8669.350000,7268.730000 8670.820000,7270.240000 8667.930000,7273.050000 8674.850000,7279.920000"/>
    <poly id="261389666" type="building" color="255,230,230" fill="1" layer="-1.00" shape="8627.200000,7313.260000 8631.930000,7308.930000 8637.770000,7313.990000 8629.380000,7317.280000 8627.200000,7313.260000"/>
    <poly id="261389667" type="building" color="255,230,230" fill="1" layer="-1.00" shape="8659.460000,7297.790000 8650.410000,7288.960000 8655.730000,7283.540000 8661.680000,7289.350000 8662.850000,7288.150000 8665.950000,7291.180000 8659.460000,7297.790000"/>
    <poly id="261389668" type="building" color="255,230,230" fill="1" layer="-1.00" shape="8650.120000,7306.170000 8643.510000,7312.580000 8640.540000,7310.150000 8639.820000,7311.000000 8638.230000,7309.430000 8634.300000,7305.470000 8638.010000,7301.600000 8635.580000,7298.730000 8637.720000,7296.310000 8642.080000,7298.020000 8650.120000,7306.170000"/>
    <poly id="261389669" type="building" color="255,230,230" fill="1" layer="-1.00" shape="8712.370000,7286.340000 8720.540000,7289.360000 8719.970000,7295.840000 8718.880000,7295.280000 8705.570000,7294.700000 8706.370000,7285.920000 8712.370000,7286.340000"/>
    <poly id="261389670" type="building" color="255,230,230" fill="1" layer="-1.00" shape="8683.370000,7248.200000 8680.950000,7252.020000 8679.350000,7251.010000 8677.420000,7254.050000 8679.020000,7255.060000 8678.070000,7256.550000 8688.480000,7263.140000 8693.790000,7254.800000 8683.370000,7248.200000"/>
    <poly id="261389671" type="building" color="255,230,230" fill="1" layer="-1.00" shape="8715.320000,7279.410000 8708.210000,7276.740000 8711.840000,7267.130000 8719.440000,7269.970000 8715.320000,7279.410000"/>
    <poly id="261463890" type="building" color="255,230,230" fill="1" layer="-1.00" shape="8653.400000,7330.470000 8661.770000,7338.980000 8671.730000,7329.250000 8663.360000,7320.740000 8653.400000,7330.470000"/>
    <poly id="261463893" type="building" color="255,230,230" fill="1" layer="-1.00" shape="8669.030000,7375.300000 8683.660000,7380.310000 8684.330000,7373.660000 8671.140000,7369.080000 8669.030000,7375.300000"/>
    <poly id="261463894" type="building" color="255,230,230" fill="1" layer="-1.00" shape="8675.150000,7314.890000 8670.970000,7318.720000 8677.780000,7326.130000 8685.100000,7319.430000 8682.210000,7316.280000 8681.400000,7317.190000 8677.360000,7312.860000 8675.150000,7314.890000"/>