<?xml version="1.0" encoding="UTF-8"?>
<!-- generated on Mon Apr  9 10:59:02 2018 by SUMO duarouter Version 0.30.0
<?xml version="1.0" encoding="UTF-8"?>

<configuration xmlns:xsi="http://www.w3.org/2001/XMLSchema-instance" xsi:noNamespaceSchemaLocation="http://sumo.dlr.de/xsd/duarouterConfiguration.xsd">

    <input>
        <net-file value="paderborn-north.net.xml"/>
        <trip-files value="paderborn-north.trp.xml"/>
    </input>

    <output>
        <output-file value="paderborn-north.rou.xml"/>
    </output>

</configuration>
-->
<routes xmlns:xsi="http://www.w3.org/2001/XMLSchema-instance" xsi:noNamespaceSchemaLocation="http://sumo.dlr.de/xsd/routes_file.xsd">
    <vType id="default" vClass="passenger" color="red"/>
    <vehicle id="h9507c1:1" type="default" depart="6.00">
        <route edges="-19206342#0 -19206341#6 -19206341#4 -19206341#3 -19206341#1 -323350445#1 -369470720"/>
    </vehicle>
    <vType id="random" vClass="passenger" color="blue"/>
    <vehicle id="randUni18985:1" type="random" depart="18.00">
        <route edges="-85587881 129438614#6 129438614#7 129438604 214641590#0 25023129#0 27475071#0"/>
    </vehicle>
    <vehicle id="h9436c1:1" type="default" depart="21.00">
        <route edges="-19206341#15 -19206341#14 -19206341#13 -19206341#12 -53140947#6 -53140947#5 -53140947#4 -53140947#3 -53140947#2 -53140947#1 -53140947#0 -28708245#1 -57124286#1 -31312768#1 -55641086#3"/>
    </vehicle>
    <vehicle id="h65519c1:5" type="default" depart="40.00">
        <route edges="24837509 -129438612#4 -129438612#3 -129438612#1 -129438613#1 129438614#0 129438614#2 129438614#3 129438614#4 129438614#5 129438614#6 129438614#7 129438604 35205499#0 -30889573"/>
    </vehicle>
    <vehicle id="h45255c2:1" type="default" depart="52.43">
        <route edges="-8010676#8 -8010676#7 -8010676#5 -8010676#2 -8010676#1 -8010676#0 -369470720"/>
    </vehicle>
    <vehicle id="randUni22304:1" type="random" depart="69.03">
        <route edges="-27475071#0 -25023129#1 -214641593#1 -30889573"/>
    </vehicle>
    <vehicle id="h48389c1:1" type="default" depart="81.00">
        <route edges="203886087 -203886087 -19214324 -19214319#4 -19214319#3 -52477091#1 -52477091#0 -53140947#1 -53140947#0 -28708245#1 -57124286#1 -31312768#1 -55641086#3"/>
    </vehicle>
    <vehicle id="h45900c1:1" type="default" depart="83.00">
        <route edges="19215691#0 19215691#1 24825185 -19787257#13 -19787257#12 -19787257#10 -19787257#9 -19787257#8 -19787257#7 -19787257#6 -19787257#5 -19787257#4 -19787257#3 -19787257#2 -19787257#1 -366826003 -173156198 -366826002#1 -366826002#0 -57124282#4 -57124282#3 -57124282#2 -57124282#1 -57124282#0 -57124286#1 -31312768#1 -55641086#3"/>
    </vehicle>
    <vehicle id="h9785c1:1" type="default" depart="91.44">
        <route edges="-14715811#1 366826002#0 366826002#1 173156198 366826003 -129438609 173152073#0 173152073#1 -188589931#1 -214641636#1 -323634328 25023129#0 27475071#0"/>
    </vehicle>
    <vehicle id="h811c1:1" type="default" depart="100.42">
        <route edges="19215682#7 19787257#0 19787257#2 19787257#3 19787257#4 300053589 -300053589 -19787257#4"/>
    </vehicle>
    <vehicle id="carIn8408:3" type="default" depart="102.67">
        <route edges="-27475071#0 -25023129#1 -214641590#1 -129438604 -8010676#19 -8010676#16 -8010676#15 -8010676#13 -8010676#12 -8010676#11 -8010676#10 -8010676#9 -8010676#8 -8010676#7 -8010676#5 -8010676#2 -8010676#1 -8010676#0 -369470720"/>
    </vehicle>
    <vehicle id="randUni5418:1" type="random" depart="125.51">
        <route edges="31312768#0 57124286#0 57124282#0 57124282#1 57124282#2 57124282#3 57124282#4 366826002#0 366826002#1 173156198 366826003 -129438609 173152073#0 173152073#1 -188589931#1 -214641636#1 -323634328 25023129#0 27475071#0"/>
    </vehicle>
    <vehicle id="h47046c1:1" type="default" depart="131.69">
        <route edges="19215682#7 -129438609 173152073#0 173152073#1 -188589931#1 -214641636#1 -323634328 25023129#0 27475071#0"/>
    </vehicle>
    <vehicle id="h1937c2:1" type="default" depart="135.68">
        <route edges="369470720 8010676#0 8010676#1 8010676#2 8010676#4 8010676#6 8010676#8 8010676#9 8010676#10 8010676#11 8010676#12 8010676#13 8010676#14 8010676#16 8010676#17 129438604 214641590#0 25023129#0 27475071#0"/>
    </vehicle>
    <vehicle id="randUni32007:1" type="random" depart="141.12">
        <route edges="55641086#3 31312768#0 57124286#0 57124282#0 57124282#1 57124282#2 57124282#3 57124282#4 366826002#0 366826002#1 173156198 366826003 -129438609 173152073#0 173152073#1 4229143#0 188589930#0 188589930#1"/>
    </vehicle>
    <vehicle id="h44872c2:1" type="default" depart="144.06">
        <route edges="-8010676#13 -8010676#12 -8010676#11 -8010676#10 -8010676#9 -8010676#8 -8010676#7 -8010676#5 -8010676#2 -8010676#1 -8010676#0 -369470720"/>
    </vehicle>
    <vehicle id="h45900c2:1" type="default" depart="154.00">
        <route edges="19215691#0 19215691#1 24825185 -19787257#13 -19787257#12 -19787257#10 -19787257#9 -19787257#8 -19787257#7 -19787257#6 -19787257#5 -19787257#4 -19787257#3 -19787257#2 -19787257#1 -366826003 -173156198 -366826002#1 -366826002#0 -57124282#4 -57124282#3 -57124282#2 -57124282#1 -57124282#0 -57124286#1 -31312768#1 -55641086#3"/>
    </vehicle>
    <vehicle id="h45777c1:1" type="default" depart="159.35">
        <route edges="19215682#7 -366826003 -173156198 -366826002#1 -366826002#0 -57124282#4 -57124282#3 -57124282#2 -57124282#1 -57124282#0 -57124286#1 -31312768#1 -55641086#3"/>
    </vehicle>
    <vehicle id="h35283c1:1" type="default" depart="161.00">
        <route edges="129438614#0 129438614#2 129438614#3 129438614#4 129438614#5 129438614#6 129438614#7 129438604 214641590#0 25023129#0 27475071#0"/>
    </vehicle>
    <vehicle id="h35701c1:3" type="default" depart="163.08">
        <route edges="-57124286#1 -31312768#1 -55641086#3"/>
    </vehicle>
    <vehicle id="randUni11685:1" type="random" depart="165.54">
        <route edges="30889573 214641593#0 25023127 214641636#0 35220423#0 188589930#0 188589930#1"/>
    </vehicle>
    <vehicle id="h9112c1:1" type="default" depart="169.50">
        <route edges="-8010676#13 -8010676#12 -8010676#11 -8010676#10 -8010676#9 -8010676#8 -8010676#7 -8010676#5 -8010676#2 -8010676#1 -8010676#0 -369470720"/>
    </vehicle>
    <vehicle id="h32569c1:1" type="default" depart="173.00">
        <route edges="-53140947#0 -28708245#1 -57124286#1 -31312768#1 -55641086#3"/>
    </vehicle>
    <vehicle id="h66822c2:1" type="default" depart="189.00">
        <route edges="32570873#2 -203886088#0 -19214319#5 -19214319#4 -19214319#3 -52477091#1 -52477091#0 -53140947#1 -53140947#0 -28708245#1 -57124286#1"/>
    </vehicle>
    <vehicle id="h34647c2:1" type="default" depart="194.00">
        <route edges="-89976349#4 -89976349#3 -89976349#2 -89976349#1 173156198 366826003 -129438609 173152073#0 173152073#1 4229143#0 188589930#0 188589930#1"/>
    </vehicle>
    <vehicle id="randUni38458:1" type="random" depart="195.36">
        <route edges="30889573 214641593#0 25023127 214641636#0 35220423#0 188589930#0 188589930#1"/>
    </vehicle>
    <vehicle id="h9684c1:1" type="default" depart="198.00">
        <route edges="-19212625 8519100#6 8519100#8 8519100#9 8519100#10 19206341#15 129438614#0 129438614#2 129438614#3 129438614#4 129438614#5 129438614#6 129438614#7 129438604 35205499#0 -30889573"/>
    </vehicle>
    <vehicle id="h44488c1:1" type="default" depart="201.00">
        <route edges="19201530#0 19201530#1 -19201530#1 -19201530#0"/>
    </vehicle>
    <vehicle id="h49673c2:1" type="default" depart="210.80">
        <route edges="-188589930#1 -188589930#0 -4229143#1 -188589931#1 -214641636#1 -323634328 -214641593#1 -30889573"/>
    </vehicle>
    <vehicle id="h47393c1:1" type="default" depart="215.84">
        <route edges="-188589930#1 -188589930#0 -4229143#1 -188589931#1 -214641636#1 -323634328 -214641593#1 -30889573"/>
    </vehicle>
    <vehicle id="h46480c1:1" type="default" depart="215.99">
        <route edges="369470720 8010676#0 8010676#1 8010676#2 8010676#4 8010676#6 8010676#8 8010676#9 8010676#10 8010676#11 8010676#12 8010676#13 8010676#14 8010676#16 8010676#17 129438604 214641590#0 25023129#0 27475071#0"/>
    </vehicle>
    <vehicle id="h64588c1:1" type="default" depart="217.33">
        <route edges="369470720 8010676#0 8010676#1 8010676#2 8010676#4 8010676#6 8010676#8 8010676#9 8010676#10 8010676#11 8010676#12 8010676#13 8010676#14 8010676#16 8010676#17 129438604 214641590#0 25023129#0 27475071#0"/>
    </vehicle>
    <vehicle id="h21694c1:3" type="default" depart="225.00">
        <route edges="19212626#2 19212626#3 89976349#6 89976349#7 89976349#8 89976349#10 89976349#11 89976349#12 89976349#13 89976349#14 89976349#15 129438614#0 129438614#2 129438614#3 129438614#4 129438614#5 129438614#6 129438614#7 129438604 35205499#0 -30889573"/>
    </vehicle>
    <vehicle id="h69422c2:1" type="default" depart="226.31">
        <route edges="-188589930#1 -188589930#0 -4229143#1 -188589931#1 -214641636#1 -323634328 -214641593#1 -30889573"/>
    </vehicle>
    <vehicle id="h25278c1:1" type="default" depart="228.15">
        <route edges="-27475071#0 -25023129#1 -214641590#1 -129438604 -8010676#19 -8010676#16 -8010676#15 -8010676#13 -8010676#12 -8010676#11 -8010676#10 -8010676#9 -8010676#8 -8010676#7 -8010676#5 -8010676#2 -8010676#1 -8010676#0 -369470720"/>
    </vehicle>
    <vehicle id="h9520c2:1" type="default" depart="237.00">
        <route edges="-19206342#0 -19206341#6 -19206341#4 -19206341#3 -19206341#1 -323350445#1 -369470720"/>
    </vehicle>
    <vehicle id="h44872c1:1" type="default" depart="237.06">
        <route edges="8010676#14 8010676#16 8010676#17 129438604 214641590#0 25023127 214641636#0 35220423#0 188589930#0 188589930#1"/>
    </vehicle>
    <vehicle id="carIn19364:3" type="default" depart="237.65">
        <route edges="-27475071#0 -25023129#1 -214641590#1 -129438604 -8010676#19 -8010676#16 -8010676#15 -8010676#13 -8010676#12 -8010676#11 -8010676#10 -8010676#9 -8010676#8 -8010676#7 -8010676#5 -8010676#2 -8010676#1 -8010676#0 -369470720"/>
    </vehicle>
    <vehicle id="h34375c2:1" type="default" depart="241.00">
        <route edges="-8519100#8 -8519100#6 -8519100#5 -8519100#4 -8519100#3 89974112#0 -89974112#2 89976304#0 -89976347#1 -57124282#3 -57124282#2 -57124282#1 -57124282#0 -57124286#1"/>
    </vehicle>
    <vehicle id="h48059c1:1" type="default" depart="248.01">
        <route edges="-55641086#3"/>
    </vehicle>
    <vehicle id="h11696c1:1" type="default" depart="252.11">
        <route edges="-27475071#0 -25023129#1 -214641593#1 -30889573"/>
    </vehicle>
    <vehicle id="h1690c1:1" type="default" depart="256.48">
        <route edges="369470720 8010676#0 8010676#1 8010676#2 8010676#4 8010676#6 8010676#8 8010676#9 8010676#10 8010676#11 8010676#12 8010676#13 8010676#14 8010676#16 8010676#17 129438604 214641590#0 25023129#0 27475071#0"/>
    </vehicle>
    <vehicle id="carIn359:3" type="default" depart="258.67">
        <route edges="-27475071#0 -25023129#1 -214641593#1 -30889573"/>
    </vehicle>
    <vehicle id="h34534c1:1" type="default" depart="265.22">
        <route edges="55641086#3 31312768#0 57124286#0 57124282#0 57124282#1 57124282#2 57124282#3 89976347#0 -89976304#0 89974112#2 -89974112#0 8519100#2 -172444146 89976349#3 89976349#4 89976349#5 89976349#6 89976349#7 89976349#8 89976349#10 89976349#11 89976349#12 89976349#13 89976349#14 89976349#15 129438613#0 129438611"/>
    </vehicle>
    <vehicle id="h45967c1:1" type="default" depart="268.00">
        <route edges="19215700 -19215700 19215695#4 19215695#5 19215695#6 129438602#3 -129438613#1 129438614#0 129438614#2 129438614#3 129438614#4 129438614#5 129438614#6 129438614#7 -8010676#19 -8010676#16 -8010676#15 -8010676#13 -8010676#12 -8010676#11 -8010676#10 -8010676#9 -8010676#8 -8010676#7 -8010676#5 -8010676#2 -8010676#1 -8010676#0 -369470720"/>
    </vehicle>
    <vehicle id="h10566c1:1" type="default" depart="269.42">
        <route edges="30889573 214641593#0 25023127 214641636#0 35220423#0 188589930#0 188589930#1"/>
    </vehicle>
    <vehicle id="h29539c1:1" type="default" depart="273.73">
        <route edges="-188589930#1 -188589930#0 -4229143#1 -173152073#2 -173152073#0 129438609 -366826003 -173156198 -366826002#1 -366826002#0 -57124282#4 -57124282#3 -57124282#2 -57124282#1 -57124282#0 -57124286#1 -31312768#1 -55641086#3"/>
    </vehicle>
    <vehicle id="h45350c1:1" type="default" depart="275.00">
        <route edges="19206341#13 19206341#14 -8519100#10 -8519100#9 -8519100#8 -8519100#6 -8519100#5 -8519100#4 -8519100#3 89974112#0 -89974112#2 89976304#0 -89976347#1 -57124282#3 -57124282#2 -57124282#1 -57124282#0 -57124286#1 -31312768#1 -55641086#3"/>
    </vehicle>
    <vehicle id="carIn17671:3" type="default" depart="275.18">
        <route edges="30889573 214641593#0 25023129#0 27475071#0"/>
    </vehicle>
    <vehicle id="h69948c1:1" type="default" depart="278.08">
        <route edges="-188589930#1 -188589930#0 -4229143#1 -188589931#1 -214641636#1 -323634328 -214641593#1 -30889573"/>
    </vehicle>
    <vehicle id="carIn20853:3" type="default" depart="281.11">
        <route edges="-27475071#0 -25023129#1 -214641593#1 -30889573"/>
    </vehicle>
    <vehicle id="randUni31756:1" type="random" depart="285.69">
        <route edges="30889573 214641593#0 25023129#0 27475071#0"/>
    </vehicle>
    <vehicle id="h6931c2:1" type="default" depart="292.07">
        <route edges="-14715811#1 -57124282#4 -57124282#3 -57124282#2 -57124282#1 -57124282#0 -57124286#1 -31312768#1 -55641086#3"/>
    </vehicle>
    <vehicle id="h45356c2:3" type="default" depart="295.00">
        <route edges="19206341#14 -8519100#10 -8519100#9 -8519100#8 -8519100#6 -8519100#5 -8519100#4 -8519100#3 89974112#0 -89974112#2 89976304#0 -89976347#1 -57124282#3 -57124282#2 -57124282#1 -57124282#0 -57124286#1"/>
    </vehicle>
    <vehicle id="randUni14905:1" type="random" depart="296.22">
        <route edges="-27475071#0 -25023129#1 -214641590#1 -129438604 -8010676#19 -8010676#16 -8010676#15 -8010676#13 -8010676#12 -8010676#11 -8010676#10 -8010676#9 -8010676#8 -8010676#7 -8010676#5 -8010676#2 -8010676#1 -8010676#0 -369470720"/>
    </vehicle>
    <vehicle id="carIn30348:3" type="default" depart="298.38">
        <route edges="30889573 214641593#0 25023129#0 27475071#0"/>
    </vehicle>
    <vehicle id="h36899c1:3" type="default" depart="299.00">
        <route edges="19215695#5 19215695#6 129438602#3 -129438613#1 129438614#0 129438614#2 129438614#3 129438614#4 129438614#5 129438614#6 129438614#7 129438604 35205499#0 -30889573"/>
    </vehicle>
    <vehicle id="h45799c1:1" type="default" depart="304.00">
        <route edges="19215684 -19215684 -19787257#3 -19787257#2 -19787257#1 -366826003 -173156198 -366826002#1 -366826002#0 -57124282#4 -57124282#3 -57124282#2 -57124282#1 -57124282#0 -57124286#1"/>
    </vehicle>
    <vehicle id="h44897c1:1" type="default" depart="308.14">
        <route edges="8010676#14 8010676#16 8010676#17 129438604 214641590#0 25023129#0 27475071#0"/>
    </vehicle>
    <vehicle id="carIn29570:3" type="default" depart="309.75">
        <route edges="-27475071#0 -25023129#1 -214641590#1 -129438604 -8010676#19 -8010676#16 -8010676#15 -8010676#13 -8010676#12 -8010676#11 -8010676#10 -8010676#9 -8010676#8 -8010676#7 -8010676#5 -8010676#2 -8010676#1 -8010676#0 -369470720"/>
    </vehicle>
    <vehicle id="h9512c1:1" type="default" depart="310.00">
        <route edges="-19206342#0 19206341#7 19206341#8 19206341#9 19206344#0 8010676#11 8010676#12 8010676#13 8010676#14 8010676#16 8010676#17 129438604 214641590#0 25023129#0 27475071#0"/>
    </vehicle>
    <vehicle id="h9542c1:1" type="default" depart="311.00">
        <route edges="-19206344#1 -19206341#9 -19206341#8 -19206341#7 -19206341#6 -19206341#4 -19206341#3 -19206341#1 -323350445#1 -369470720"/>
    </vehicle>
    <vehicle id="h34600c1:1" type="default" depart="320.00">
        <route edges="-89976349#11 -89976349#10 -89976349#8 -89976349#7 -89976349#6 -89976349#5 -89976349#4 -89976349#3 172444146 -8519100#3 89974112#0 -89974112#2 89976304#0 -89976347#1 -57124282#3 -57124282#2 -57124282#1 -57124282#0 -57124286#1"/>
    </vehicle>
    <vehicle id="h69272c1:1" type="default" depart="324.00">
        <route edges="53140947#2 -19214319#1 -19214319#0 -172444146 -89976349#2 -89976349#1 173156198 366826003 -129438609 173152073#0 173152073#1 4229143#0 188589930#0 188589930#1"/>
    </vehicle>
    <vehicle id="h49814c1:1" type="default" depart="325.38">
        <route edges="-55641086#3"/>
    </vehicle>
    <vehicle id="h32059c1:1" type="default" depart="329.75">
        <route edges="-55641086#3"/>
    </vehicle>
    <vehicle id="h42661c1:1" type="default" depart="331.10">
        <route edges="-14715811#1 -57124282#4 -57124282#3 -57124282#2 -57124282#1 -57124282#0 -57124286#1 -31312768#1 -55641086#3"/>
    </vehicle>
    <vehicle id="h48402c1:1" type="default" depart="336.00">
        <route edges="203886088#3 203886088#5 -203886088#5 -203886088#4 -203886088#2 -203886088#0 -19214319#5 -19214319#4 -19214319#3 -52477091#1 -52477091#0 -53140947#1 -53140947#0 -28708245#1 -57124286#1 -31312768#1 -55641086#3"/>
    </vehicle>
    <vehicle id="h6634c2:1" type="default" depart="338.10">
        <route edges="30889573 214641593#0 25023129#0 27475071#0"/>
    </vehicle>
    <vehicle id="h30209c1:1" type="default" depart="339.74">
        <route edges="-188589930#1 -188589930#0 -4229143#1 -188589931#1 -214641636#1 -323634328 -214641593#1 -30889573"/>
    </vehicle>
    <vehicle id="carIn28609:1" type="default" depart="346.13">
        <route edges="-27475071#0 -25023129#1 -214641593#1 -30889573"/>
    </vehicle>
    <vehicle id="randUni32567:1" type="random" depart="347.60">
        <route edges="-55641086#3"/>
    </vehicle>
    <vehicle id="h66726c1:1" type="default" depart="347.98">
        <route edges="-8010676#8 -8010676#7 -8010676#5 -8010676#2 -8010676#1 -8010676#0 -369470720"/>
    </vehicle>
    <vehicle id="h34608c1:1" type="default" depart="348.00">
        <route edges="-89976349#13 -89976349#12 -89976349#11 -89976349#10 -89976349#8 -89976349#7 -89976349#6 -89976349#5 -89976349#4 -89976349#3 172444146 -8519100#3 89974112#0 -89974112#2 89976304#0 -89976347#1 -57124282#3 -57124282#2 -57124282#1 -57124282#0 -57124286#1 -31312768#1 -55641086#3"/>
    </vehicle>
    <vehicle id="h9001c2:1" type="default" depart="350.18">
        <route edges="8010676#14 8010676#16 8010676#17 129438604 214641590#0 25023127 214641636#0 35220423#0 188589930#0 188589930#1"/>
    </vehicle>
    <vehicle id="h32779c1:1" type="default" depart="350.86">
        <route edges="-55641086#3"/>
    </vehicle>
    <vehicle id="carIn1804:1" type="default" depart="356.13">
        <route edges="-27475071#0 -25023129#1 -214641593#1 -30889573"/>
    </vehicle>
    <vehicle id="randUni33499:1" type="random" depart="359.00">
        <route edges="-85587885 129438614#3 129438614#4 129438614#5 129438614#6 129438614#7 -8010676#19 -8010676#16 -8010676#15 -8010676#13 -8010676#12 -8010676#11 -8010676#10 -8010676#9 -8010676#8 -8010676#7 -8010676#5 -8010676#2 -8010676#1 -8010676#0 -369470720"/>
    </vehicle>
    <vehicle id="randUni7291:1" type="random" depart="361.48">
        <route edges="-27475071#0 -25023129#1 -214641593#1 -30889573"/>
    </vehicle>
    <vehicle id="carIn12359:1" type="default" depart="361.85">
        <route edges="-188589930#1 -188589930#0 -4229143#1 -173152073#2 -173152073#0 129438609 -366826003 -173156198 -366826002#1 -366826002#0 -57124282#4 -57124282#3 -57124282#2 -57124282#1 -57124282#0 -57124286#1 -31312768#1 -55641086#3"/>
    </vehicle>
    <vehicle id="h30942c1:1" type="default" depart="361.94">
        <route edges="-55641086#3"/>
    </vehicle>
    <vehicle id="randUni1295:1" type="random" depart="363.04">
        <route edges="-173152073#0 129438609 -366826003 -173156198 -366826002#1 -366826002#0 -57124282#4 -57124282#3 -57124282#2 -57124282#1 -57124282#0 -57124286#1 -31312768#1 -55641086#3"/>
    </vehicle>
    <vehicle id="h25062c1:1" type="default" depart="366.46">
        <route edges="-27475071#0 -25023129#1 -214641590#1 -129438604 -8010676#19 -8010676#16 -8010676#15 -8010676#13 -8010676#12 -8010676#11 -8010676#10 -8010676#9 -8010676#8 -8010676#7 -8010676#5 -8010676#2 -8010676#1 -8010676#0 -369470720"/>
    </vehicle>
    <vehicle id="h12573c2:1" type="default" depart="368.57">
        <route edges="55641086#3 31312768#0 57124286#0 57124282#0 57124282#1 57124282#2 57124282#3 57124282#4 366826002#0 366826002#1 173156198 366826003 -129438609"/>
    </vehicle>
    <vehicle id="h30991c1:5" type="default" depart="369.11">
        <route edges="55641086#3"/>
    </vehicle>
    <vehicle id="h10704c1:1" type="default" depart="370.65">
        <route edges="30889573 214641593#0 -214641590#1 -129438604 -129438614#8 -129438614#6 -129438614#5 -129438614#4 -129438614#3 -129438614#2 -129438614#1 129438613#0 -129438602#4 -129438602#2 -19787257#13 -19787257#12 -19787257#10 -19787257#9 -19215689#2"/>
    </vehicle>
    <vehicle id="h45395c2:1" type="default" depart="371.00">
        <route edges="19206341#4 44363797 -44363797 -19206341#4 -19206341#3 -19206341#1 173156211#0 173156211#1 173156211#2 173156211#3 173156211#4"/>
    </vehicle>
    <vehicle id="carIn14687:1" type="default" depart="371.40">
        <route edges="369470720 8010676#0 8010676#1 8010676#2 8010676#4 8010676#6 8010676#8 8010676#9 8010676#10 8010676#11 8010676#12 8010676#13 8010676#14 8010676#16 8010676#17 129438604 214641590#0 25023129#0 27475071#0"/>
    </vehicle>
    <vehicle id="h47038c1:1" type="default" depart="372.00">
        <route edges="19787257#8 -19215689#2 -19215689#1 -19215689#0 -89976349#4 -89976349#3 172444146 -8519100#3 89974112#0 -89974112#2 89976304#0 -89976347#1 -57124282#3 -57124282#2 -57124282#1 -57124282#0 -57124286#1 -31312768#1 -55641086#3"/>
    </vehicle>
    <vehicle id="h20385c1:1" type="default" depart="374.74">
        <route edges="-55641086#3"/>
    </vehicle>
    <vehicle id="h45250c2:1" type="default" depart="376.19">
        <route edges="8010676#10 8010676#11 8010676#12 8010676#13 8010676#14 8010676#16 8010676#17 129438604 214641590#0 25023127 214641636#0 35220423#0 188589930#0 188589930#1"/>
    </vehicle>
    <vehicle id="h500c1:1" type="default" depart="378.55">
        <route edges="55641086#3 31312768#0 57124286#0 57124282#0 57124282#1 57124282#2 57124282#3 57124282#4 366826002#0 366826002#1 173156198 366826003 -129438609 173152073#0 173152073#1 4229143#0 188589930#0 188589930#1"/>
    </vehicle>
    <vehicle id="h32624c1:1" type="default" depart="379.00">
        <route edges="-53140947#6 -53140947#5 -53140947#4 -53140947#3 -53140947#2 -53140947#1 -53140947#0 -28708245#1 -57124286#1 -31312768#1 -55641086#3"/>
    </vehicle>
    <vehicle id="h45662c1:1" type="default" depart="380.00">
        <route edges="19214317#0 -203886088#0 -19214319#5 -19214319#4 -19214319#3 -52477091#1 -52477091#0 -53140947#1 -53140947#0 -28708245#1 -57124286#1 -31312768#1 -55641086#3"/>
    </vehicle>
    <vehicle id="h65777c1:1" type="default" depart="385.06">
        <route edges="55641086#3 -173156211#6 -173156211#3 58530537#0 -58530537#2 173156211#3 173156211#4 -55641086#3"/>
    </vehicle>
    <vehicle id="h28047c1:1" type="default" depart="387.73">
        <route edges="369470720 8010676#0 8010676#1 8010676#2 8010676#4 8010676#6 8010676#8 8010676#9 8010676#10 8010676#11 8010676#12 8010676#13 8010676#14 8010676#16 8010676#17 129438604 214641590#0 25023129#0 27475071#0"/>
    </vehicle>
    <vehicle id="h33810c1:1" type="default" depart="394.25">
        <route edges="30889573 214641593#0 25023127 214641636#0 35220423#0 188589930#0 188589930#1"/>
    </vehicle>
    <vehicle id="randUni41010:1" type="random" depart="394.83">
        <route edges="55641086#3 31312768#0 57124286#0 57124282#0 57124282#1 57124282#2 57124282#3 57124282#4 366826002#0 366826002#1 173156198 366826003 -129438609 173152073#0 173152073#1 4229143#0 188589930#0 188589930#1"/>
    </vehicle>
    <vehicle id="h11132c1:1" type="default" depart="396.37">
        <route edges="-57124286#1 -31312768#1 -55641086#3"/>
    </vehicle>
    <vehicle id="h39094c1:1" type="default" depart="399.45">
        <route edges="-188589930#1 -188589930#0 -4229143#1 -188589931#1 -214641636#1 -323634328 -214641593#1 -30889573"/>
    </vehicle>
    <vehicle id="h45431c2:1" type="default" depart="402.00">
        <route edges="19206342#0 405034497 -405034497 -19206342#0 19206341#7 19206341#8 19206341#9 19206344#0 8010676#11 8010676#12 8010676#13 8010676#14 8010676#16 8010676#17 129438604 214641590#0 25023129#0 27475071#0"/>
    </vehicle>
    <vehicle id="h50751c1:3" type="default" depart="403.12">
        <route edges="30889573 214641593#0 25023127 214641636#0 35220423#0 188589930#0 188589930#1"/>
    </vehicle>
    <vehicle id="h44929c1:1" type="default" depart="403.23">
        <route edges="369470720 8010676#0 8010676#1 8010676#2 8010676#4 8010676#6 8010676#8 8010676#9 8010676#10 8010676#11 8010676#12 8010676#13"/>
    </vehicle>
    <vehicle id="h8698c1:1" type="default" depart="407.17">
        <route edges="8010676#6 8010676#8 8010676#9 8010676#10 8010676#11 8010676#12 8010676#13 8010676#14 8010676#16 8010676#17 129438604 214641590#0 25023129#0 27475071#0"/>
    </vehicle>
    <vehicle id="h27949c2:1" type="default" depart="408.17">
        <route edges="55641086#3"/>
    </vehicle>
    <vehicle id="carIn26861:1" type="default" depart="410.13">
        <route edges="-27475071#0 -25023129#1 -214641593#1 -30889573"/>
    </vehicle>
    <vehicle id="randUni15026:1" type="random" depart="410.14">
        <route edges="-27475071#0 -25023129#1 -214641593#1 -30889573"/>
    </vehicle>
    <vehicle id="h25897c1:1" type="default" depart="417.28">
        <route edges="-27475071#0 -25023129#1 -214641590#1 -129438604 -8010676#19 -8010676#16 -8010676#15 -8010676#13 -8010676#12 -8010676#11 -8010676#10 -8010676#9 -8010676#8 -8010676#7 -8010676#5 -8010676#2 -8010676#1 -8010676#0 -369470720"/>
    </vehicle>
    <vehicle id="carIn4444:1" type="default" depart="418.40">
        <route edges="369470720 8010676#0 8010676#1 8010676#2 8010676#4 8010676#6 8010676#8 8010676#9 8010676#10 8010676#11 8010676#12 8010676#13 8010676#14 8010676#16 8010676#17 129438604 214641590#0 25023129#0 27475071#0"/>
    </vehicle>
    <vehicle id="h37747c2:1" type="default" depart="429.93">
        <route edges="369470720 8010676#0 8010676#1 8010676#2 8010676#4 8010676#6 8010676#8 8010676#9 8010676#10 8010676#11 8010676#12 8010676#13 8010676#14 8010676#16 8010676#17 129438604 214641590#0 25023129#0 27475071#0"/>
    </vehicle>
    <vehicle id="h46975c1:1" type="default" depart="435.15">
        <route edges="-14715811#1 -57124282#4 -57124282#3 -57124282#2 -57124282#1 -57124282#0 -57124286#1 -31312768#1 -55641086#3"/>
    </vehicle>
    <vehicle id="h68984c1:1" type="default" depart="435.29">
        <route edges="55641086#3"/>
    </vehicle>
    <vehicle id="h33117c2:1" type="default" depart="437.02">
        <route edges="369470720 8010676#0 8010676#1 8010676#2 8010676#4 8010676#6 8010676#8 8010676#9 8010676#10 8010676#11 8010676#12 8010676#13 8010676#14 8010676#16 8010676#17 129438604 214641590#0 25023129#0 27475071#0"/>
    </vehicle>
    <vehicle id="h43445c1:1" type="default" depart="439.81">
        <route edges="30889573 214641593#0 25023127 214641636#0 188589931#0 -173152073#2"/>
    </vehicle>
    <vehicle id="carIn8897:1" type="default" depart="440.89">
        <route edges="55641086#3 31312768#0 57124286#0 57124282#0 57124282#1 57124282#2 57124282#3 57124282#4 366826002#0 366826002#1"/>
    </vehicle>
    <vehicle id="carIn13852:1" type="default" depart="443.40">
        <route edges="369470720 8010676#0 8010676#1 8010676#2 8010676#4 8010676#6 8010676#8 8010676#9 8010676#10 8010676#11 8010676#12 8010676#13 8010676#14 8010676#16 8010676#17 129438604 214641590#0 25023129#0 27475071#0"/>
    </vehicle>
    <vehicle id="carIn34235:1" type="default" depart="443.81">
        <route edges="369470720 8010676#0 8010676#1 8010676#2 8010676#4 8010676#6 8010676#8 8010676#9 8010676#10 8010676#11 8010676#12 8010676#13 8010676#14 8010676#16 8010676#17 129438604 214641590#0 25023129#0 27475071#0"/>
    </vehicle>
    <vehicle id="h45378c1:3" type="default" depart="444.00">
        <route edges="19206341#15 -89976349#15 -89976349#14 -89976349#13 -89976349#12 -89976349#11 -89976349#10 -89976349#8 -89976349#7 -89976349#6 -89976349#5 -89976349#4 -89976349#3 -89976349#2 -89976349#1"/>
    </vehicle>
    <vehicle id="h45921c1:1" type="default" depart="445.00">
        <route edges="19215692 -19215692 24825185 -19787257#13 -19787257#12 -19787257#10 -19787257#9 -19787257#8 -19787257#7 -19787257#6 -19787257#5 -19787257#4 -19787257#3 -19787257#2 -19787257#1 -366826003 -173156198 -366826002#1 -366826002#0 -57124282#4 -57124282#3 -57124282#2 -57124282#1 -57124282#0 -57124286#1 -31312768#1 -55641086#3"/>
    </vehicle>
    <vehicle id="carIn11700:1" type="default" depart="448.81">
        <route edges="369470720 8010676#0 8010676#1 8010676#2 8010676#4 8010676#6 8010676#8 8010676#9 8010676#10 8010676#11"/>
    </vehicle>
    <vehicle id="carIn33580:1" type="default" depart="449.13">
        <route edges="-27475071#0 -25023129#1 -214641593#1 -30889573"/>
    </vehicle>
    <vehicle id="carIn4649:1" type="default" depart="451.13">
        <route edges="-27475071#0 -25023129#1 -214641593#1 -30889573"/>
    </vehicle>
    <vehicle id="h39133c1:1" type="default" depart="451.38">
        <route edges="-188589930#1 -188589930#0 -4229143#1 -188589931#1 -214641636#1 -323634328 -214641590#1 -129438604 -8010676#19 -8010676#16 -8010676#15"/>
    </vehicle>
    <vehicle id="carIn1901:1" type="default" depart="451.81">