<?xml version="1.0" encoding="UTF-8"?>
<!-- generated on Thu Aug 31 12:23:36 2017 by SUMO duarouter Version 0.25.0
<?xml version="1.0" encoding="UTF-8"?>

<configuration xmlns:xsi="http://www.w3.org/2001/XMLSchema-instance" xsi:noNamespaceSchemaLocation="http://sumo.dlr.de/xsd/duarouterConfiguration.xsd">

    <input>
        <net-file value="hynets.net.xml"/>
        <trip-files value="hynets.trips.xml"/>
    </input>

    <output>
        <output-file value="hynets.rou.xml"/>
    </output>

    <processing>
        <ignore-errors value="true"/>
    </processing>

    <time>
        <begin value="0.0"/>
        <end value="3600.0"/>
    </time>

    <report>
        <no-warnings value="true"/>
        <no-step-log value="true"/>
    </report>

</configuration>
-->
<routes xmlns:xsi="http://www.w3.org/2001/XMLSchema-instance" xsi:noNamespaceSchemaLocation="http://sumo.dlr.de/xsd/routes_file.xsd">
    <!-- type and route information for ego vehicle to allow external spawning -->
    <vType id="ego-type" color="blue"/>
    <route id="ego-route" color="blue" edges="513/1to512/1 1/1to1024/1 513/1to512/1 1/1to1024/1 513/1to512/1 1/1to1024/1 513/1to512/1 1/1to1024/1 513/1to512/1 1/1to1024/1 513/1to512/1 1/1to1024/1 513/1to512/1 1/1to1024/1 513/1to512/1 1/1to1024/1 513/1to512/1 1/1to1024/1 513/1to512/1 1/1to1024/1 513/1to512/1 1/1to1024/1 513/1to512/1 1/1to1024/1 513/1to512/1 1/1to1024/1 513/1to512/1 1/1to1024/1 513/1to512/1 1/1to1024/1 513/1to512/1 1/1to1024/1 513/1to512/1 1/1to1024/1 513/1to512/1 1/1to1024/1 513/1to512/1 1/1to1024/1 513/1to512/1 1/1to1024/1 "/>

    <!-- fellow traffic -->
    <vehicle id="1" depart="1.00">
        <route edges="513/1to514/1"/>
    </vehicle>
    <vehicle id="2" depart="2.00">
        <route edges="513/1to512/1"/>
    </vehicle>
    <vehicle id="3" depart="3.00">
        <route edges="513/1to512/1 1/1to1024/1"/>
    </vehicle>
    <vehicle id="4" depart="4.00">
        <route edges="1/1to1024/1 513/1to512/1"/>
    </vehicle>
    <vehicle id="6" depart="6.00">
        <route edges="1/1to2/1 513/1to514/1"/>
    </vehicle>
    <vehicle id="8" depart="8.00">
        <route edges="513/1to512/1 1/1to1024/1"/>
    </vehicle>
    <vehicle id="9" depart="9.00">
        <route edges="1/1to1024/1"/>
    </vehicle>
    <vehicle id="11" depart="11.00">
        <route edges="513/1to512/1 1/1to1024/1"/>
    </vehicle>
    <vehicle id="13" depart="13.00">
        <route edges="1/1to2/1"/>
    </vehicle>
    <vehicle id="17" depart="17.00">
        <route edges="513/1to514/1 1/1to2/1"/>
    </vehicle>
    <vehicle id="20" depart="20.00">
        <route edges="1/1to1024/1"/>
    </vehicle>
    <vehicle id="21" depart="21.00">
        <route edges="1/1to2/1 513/1to514/1"/>
    </vehicle>
    <vehicle id="23" depart="23.00">
        <route edges="1/1to1024/1"/>
    </vehicle>
    <vehicle id="24" depart="24.00">
        <route edges="1/1to1024/1 513/1to512/1"/>
    </vehicle>
    <vehicle id="25" depart="25.00">
        <route edges="1/1to1024/1 513/1to512/1"/>
    </vehicle>
    <vehicle id="27" depart="27.00">
        <route edges="1/1to2/1 513/1to514/1"/>
    </vehicle>
    <vehicle id="28" depart="28.00">
        <route edges="1/1to2/1"/>
    </vehicle>
    <vehicle id="33" depart="33.00">
        <route edges="1/1to2/1 513/1to514/1"/>
    </vehicle>
    <vehicle id="36" depart="36.00">
        <route edges="513/1to512/1"/>
    </vehicle>
    <vehicle id="38" depart="38.00">
        <route edges="1/1to2/1"/>
    </vehicle>
    <vehicle id="39" depart="39.00">
        <route edges="1/1to2/1 513/1to514/1"/>
    </vehicle>
    <vehicle id="41" depart="41.00">
        <route edges="1/1to2/1"/>
    </vehicle>
    <vehicle id="44" depart="44.00">
        <route edges="513/1to512/1"/>
    </vehicle>
    <vehicle id="45" depart="45.00">
        <route edges="513/1to512/1"/>
    </vehicle>
    <vehicle id="46" depart="46.00">
        <route edges="1/1to2/1 513/1to514/1"/>
    </vehicle>
    <vehicle id="48" depart="48.00">
        <route edges="513/1to512/1"/>
    </vehicle>
    <vehicle id="50" depart="50.00">
        <route edges="513/1to512/1 1/1to1024/1"/>
    </vehicle>
    <vehicle id="51" depart="51.00">
        <route edges="513/1to512/1 1/1to1024/1"/>
    </vehicle>
    <vehicle id="52" depart="52.00">
        <route edges="513/1to512/1"/>
    </vehicle>
    <vehicle id="53" depart="53.00">
        <route edges="513/1to512/1 1/1to1024/1"/>
    </vehicle>
    <vehicle id="56" depart="56.00">
        <route edges="1/1to1024/1"/>
    </vehicle>
    <vehicle id="57" depart="57.00">
        <route edges="1/1to2/1"/>
    </vehicle>
    <vehicle id="60" depart="60.00">
        <route edges="513/1to512/1"/>
    </vehicle>
    <vehicle id="63" depart="63.00">
        <route edges="513/1to512/1"/>
    </vehicle>
    <vehicle id="64" depart="64.00">
        <route edges="513/1to514/1"/>
    </vehicle>
    <vehicle id="65" depart="65.00">
        <route edges="1/1to1024/1 513/1to512/1"/>
    </vehicle>
    <vehicle id="68" depart="68.00">
        <route edges="1/1to2/1"/>
    </vehicle>
    <vehicle id="73" depart="73.00">
        <route edges="1/1to2/1"/>
    </vehicle>
    <vehicle id="74" depart="74.00">
        <route edges="513/1to514/1 1/1to2/1"/>
    </vehicle>
    <vehicle id="75" depart="75.00">
        <route edges="513/1to514/1 1/1to2/1"/>
    </vehicle>
    <vehicle id="76" depart="76.00">
        <route edges="1/1to1024/1 513/1to512/1"/>
    </vehicle>
    <vehicle id="77" depart="77.00">
        <route edges="513/1to512/1"/>
    </vehicle>
    <vehicle id="79" depart="79.00">
        <route edges="1/1to2/1"/>
    </vehicle>
    <vehicle id="80" depart="80.00">
        <route edges="513/1to514/1 1/1to2/1"/>
    </vehicle>
    <vehicle id="82" depart="82.00">
        <route edges="513/1to512/1"/>
    </vehicle>
    <vehicle id="84" depart="84.00">
        <route edges="1/1to2/1"/>
    </vehicle>
    <vehicle id="85" depart="85.00">
        <route edges="1/1to2/1 513/1to514/1"/>
    </vehicle>
    <vehicle id="86" depart="86.00">
        <route edges="513/1to512/1"/>
    </vehicle>
    <vehicle id="87" depart="87.00">
        <route edges="1/1to2/1 513/1to514/1"/>
    </vehicle>
    <vehicle id="88" depart="88.00">
        <route edges="513/1to512/1"/>
    </vehicle>
    <vehicle id="89" depart="89.00">
        <route edges="1/1to2/1"/>
    </vehicle>
    <vehicle id="93" depart="93.00">
        <route edges="1/1to1024/1"/>
    </vehicle>
    <vehicle id="95" depart="95.00">
        <route edges="513/1to514/1 1/1to2/1"/>
    </vehicle>
    <vehicle id="96" depart="96.00">
        <route edges="513/1to512/1 1/1to1024/1"/>
    </vehicle>
    <vehicle id="97" depart="97.00">
        <route edges="513/1to512/1 1/1to1024/1"/>
    </vehicle>
    <vehicle id="99" depart="99.00">
        <route edges="1/1to1024/1"/>
    </vehicle>
    <vehicle id="102" depart="102.00">
        <route edges="1/1to2/1 513/1to514/1"/>
    </vehicle>
    <vehicle id="104" depart="104.00">
        <route edges="513/1to512/1"/>
    </vehicle>
    <vehicle id="106" depart="106.00">
        <route edges="513/1to514/1 1/1to2/1"/>
    </vehicle>
    <vehicle id="107" depart="107.00">
        <route edges="513/1to512/1"/>
    </vehicle>
    <vehicle id="108" depart="108.00">
        <route edges="513/1to512/1 1/1to1024/1"/>
    </vehicle>
    <vehicle id="109" depart="109.00">
        <route edges="513/1to512/1"/>
    </vehicle>
    <vehicle id="111" depart="111.00">
        <route edges="1/1to1024/1 513/1to512/1"/>
    </vehicle>
    <vehicle id="113" depart="113.00">
        <route edges="1/1to2/1 513/1to514/1"/>
    </vehicle>
    <vehicle id="114" depart="114.00">
        <route edges="1/1to1024/1 513/1to512/1"/>
    </vehicle>
    <vehicle id="115" depart="115.00">
        <route edges="513/1to514/1"/>
    </vehicle>
    <vehicle id="116" depart="116.00">
        <route edges="1/1to2/1"/>
    </vehicle>
    <vehicle id="117" depart="117.00">
        <route edges="513/1to512/1 1/1to1024/1"/>
    </vehicle>
    <vehicle id="118" depart="118.00">
        <route edges="1/1to2/1"/>
    </vehicle>
    <vehicle id="122" depart="122.00">
        <route edges="513/1to512/1 1/1to1024/1"/>
    </vehicle>
    <vehicle id="123" depart="123.00">
        <route edges="1/1to1024/1"/>
    </vehicle>
    <vehicle id="124" depart="124.00">
        <route edges="513/1to512/1"/>
    </vehicle>
    <vehicle id="125" depart="125.00">
        <route edges="513/1to514/1"/>
    </vehicle>
    <vehicle id="126" depart="126.00">
        <route edges="513/1to512/1"/>
    </vehicle>
    <vehicle id="129" depart="129.00">
        <route edges="1/1to1024/1"/>
    </vehicle>
    <vehicle id="130" depart="130.00">
        <route edges="513/1to514/1 1/1to2/1"/>
    </vehicle>
    <vehicle id="132" depart="132.00">
        <route edges="1/1to2/1 513/1to514/1"/>
    </vehicle>
    <vehicle id="138" depart="138.00">
        <route edges="513/1to514/1"/>
    </vehicle>
    <vehicle id="140" depart="140.00">
        <route edges="513/1to512/1 1/1to1024/1"/>
    </vehicle>
    <vehicle id="143" depart="143.00">
        <route edges="513/1to514/1 1/1to2/1"/>
    </vehicle>
    <vehicle id="147" depart="147.00">
        <route edges="513/1to514/1"/>
    </vehicle>
    <vehicle id="148" depart="148.00">
        <route edges="1/1to2/1 513/1to514/1"/>
    </vehicle>
    <vehicle id="150" depart="150.00">
        <route edges="513/1to514/1 1/1to2/1"/>
    </vehicle>
    <vehicle id="151" depart="151.00">
        <route edges="1/1to2/1 513/1to514/1"/>
    </vehicle>
    <vehicle id="152" depart="152.00">
        <route edges="1/1to2/1 513/1to514/1"/>
    </vehicle>
    <vehicle id="153" depart="153.00">
        <route edges="513/1to514/1"/>
    </vehicle>
    <vehicle id="156" depart="156.00">
        <route edges="513/1to512/1 1/1to1024/1"/>
    </vehicle>
    <vehicle id="158" depart="158.00">
        <route edges="513/1to514/1 1/1to2/1"/>
    </vehicle>
    <vehicle id="162" depart="162.00">
        <route edges="513/1to514/1 1/1to2/1"/>
    </vehicle>
    <vehicle id="164" depart="164.00">
        <route edges="1/1to1024/1"/>
    </vehicle>
    <vehicle id="166" depart="166.00">
        <route edges="513/1to514/1 1/1to2/1"/>
    </vehicle>
    <vehicle id="167" depart="167.00">
        <route edges="513/1to514/1 1/1to2/1"/>
    </vehicle>
    <vehicle id="168" depart="168.00">
        <route edges="513/1to514/1 1/1to2/1"/>
    </vehicle>
    <vehicle id="169" depart="169.00">
        <route edges="513/1to514/1 1/1to2/1"/>
    </vehicle>
    <vehicle id="170" depart="170.00">
        <route edges="513/1to514/1"/>
    </vehicle>
    <vehicle id="172" depart="172.00">
        <route edges="513/1to514/1"/>
    </vehicle>
    <vehicle id="174" depart="174.00">
        <route edges="513/1to514/1 1/1to2/1"/>
    </vehicle>
    <vehicle id="175" depart="175.00">
        <route edges="1/1to1024/1 513/1to512/1"/>
    </vehicle>
    <vehicle id="178" depart="178.00">
        <route edges="1/1to1024/1"/>
    </vehicle>
    <vehicle id="184" depart="184.00">
        <route edges="1/1to2/1"/>
    </vehicle>
    <vehicle id="185" depart="185.00">
        <route edges="1/1to1024/1"/>
    </vehicle>
    <vehicle id="189" depart="189.00">
        <route edges="1/1to2/1"/>
    </vehicle>
    <vehicle id="194" depart="194.00">
        <route edges="513/1to514/1 1/1to2/1"/>
    </vehicle>
    <vehicle id="196" depart="196.00">
        <route edges="1/1to1024/1 513/1to512/1"/>
    </vehicle>
    <vehicle id="199" depart="199.00">
        <route edges="1/1to1024/1"/>
    </vehicle>
    <vehicle id="200" depart="200.00">
        <route edges="513/1to512/1 1/1to1024/1"/>
    </vehicle>
    <vehicle id="201" depart="201.00">
        <route edges="513/1to514/1"/>
    </vehicle>
    <vehicle id="203" depart="203.00">
        <route edges="513/1to514/1 1/1to2/1"/>
    </vehicle>
    <vehicle id="206" depart="206.00">
        <route edges="513/1to514/1 1/1to2/1"/>
    </vehicle>
    <vehicle id="207" depart="207.00">
        <route edges="1/1to1024/1"/>
    </vehicle>
    <vehicle id="210" depart="210.00">
        <route edges="1/1to2/1"/>
    </vehicle>
    <vehicle id="215" depart="215.00">
        <route edges="1/1to1024/1 513/1to512/1"/>
    </vehicle>
    <vehicle id="216" depart="216.00">
        <route edges="513/1to512/1"/>
    </vehicle>
    <vehicle id="218" depart="218.00">
        <route edges="1/1to2/1"/>
    </vehicle>
    <vehicle id="219" depart="219.00">
        <route edges="1/1to1024/1 513/1to512/1"/>
    </vehicle>
    <vehicle id="220" depart="220.00">
        <route edges="1/1to1024/1"/>
    </vehicle>
    <vehicle id="221" depart="221.00">
        <route edges="513/1to512/1"/>
    </vehicle>
    <vehicle id="223" depart="223.00">
        <route edges="1/1to1024/1 513/1to512/1"/>
    </vehicle>
    <vehicle id="227" depart="227.00">
        <route edges="513/1to512/1"/>
    </vehicle>
    <vehicle id="228" depart="228.00">
        <route edges="513/1to512/1"/>
    </vehicle>
    <vehicle id="229" depart="229.00">
        <route edges="513/1to512/1 1/1to1024/1"/>
    </vehicle>
    <vehicle id="230" depart="230.00">
        <route edges="513/1to514/1 1/1to2/1"/>
    </vehicle>
    <vehicle id="232" depart="232.00">
        <route edges="513/1to512/1"/>
    </vehicle>
    <vehicle id="235" depart="235.00">
        <route edges="1/1to1024/1"/>
    </vehicle>
    <vehicle id="237" depart="237.00">
        <route edges="1/1to1024/1"/>
    </vehicle>
    <vehicle id="238" depart="238.00">
        <route edges="513/1to512/1 1/1to1024/1"/>
    </vehicle>
    <vehicle id="240" depart="240.00">
        <route edges="1/1to2/1 513/1to514/1"/>
    </vehicle>
    <vehicle id="241" depart="241.00">
        <route edges="513/1to512/1"/>
    </vehicle>
    <vehicle id="242" depart="242.00">
        <route edges="513/1to514/1"/>
    </vehicle>
    <vehicle id="243" depart="243.00">
        <route edges="1/1to1024/1"/>
    </vehicle>
    <vehicle id="244" depart="244.00">
        <route edges="1/1to2/1 513/1to514/1"/>
    </vehicle>
    <vehicle id="246" depart="246.00">
        <route edges="513/1to514/1"/>
    </vehicle>
    <vehicle id="247" depart="247.00">
        <route edges="513/1to512/1"/>
    </vehicle>
    <vehicle id="249" depart="249.00">
        <route edges="1/1to1024/1"/>
    </vehicle>
    <vehicle id="250" depart="250.00">
        <route edges="1/1to2/1 513/1to514/1"/>
    </vehicle>
    <vehicle id="251" depart="251.00">
        <route edges="513/1to514/1"/>
    </vehicle>
    <vehicle id="252" depart="252.00">
        <route edges="1/1to2/1"/>
    </vehicle>
    <vehicle id="253" depart="253.00">
        <route edges="1/1to2/1 513/1to514/1"/>
    </vehicle>
    <vehicle id="256" depart="256.00">
        <route edges="513/1to514/1"/>
    </vehicle>
    <vehicle id="261" depart="261.00">
        <route edges="1/1to2/1"/>
    </vehicle>
    <vehicle id="262" depart="262.00">
        <route edges="513/1to514/1 1/1to2/1"/>
    </vehicle>
    <vehicle id="264" depart="264.00">
        <route edges="1/1to2/1 513/1to514/1"/>
    </vehicle>
    <vehicle id="269" depart="269.00">
        <route edges="1/1to2/1 513/1to514/1"/>
    </vehicle>
    <vehicle id="272" depart="272.00">
        <route edges="513/1to512/1 1/1to1024/1"/>
    </vehicle>
    <vehicle id="273" depart="273.00">
        <route edges="1/1to2/1"/>
    </vehicle>
    <vehicle id="274" depart="274.00">
        <route edges="1/1to1024/1 513/1to512/1"/>
    </vehicle>
    <vehicle id="276" depart="276.00">
        <route edges="513/1to512/1"/>
    </vehicle>
    <vehicle id="277" depart="277.00">
        <route edges="1/1to1024/1 513/1to512/1"/>
    </vehicle>
    <vehicle id="279" depart="279.00">
        <route edges="1/1to1024/1"/>
    </vehicle>
    <vehicle id="280" depart="280.00">
        <route edges="513/1to512/1"/>
    </vehicle>
    <vehicle id="284" depart="284.00">
        <route edges="513/1to514/1"/>
    </vehicle>
    <vehicle id="286" depart="286.00">
        <route edges="513/1to512/1"/>
    </vehicle>
    <vehicle id="290" depart="290.00">
        <route edges="1/1to1024/1 513/1to512/1"/>
    </vehicle>
    <vehicle id="291" depart="291.00">
        <route edges="1/1to1024/1 513/1to512/1"/>
    </vehicle>
    <vehicle id="292" depart="292.00">
        <route edges="1/1to2/1"/>
    </vehicle>
    <vehicle id="293" depart="293.00">
        <route edges="1/1to2/1"/>
    </vehicle>
    <vehicle id="295" depart="295.00">
        <route edges="1/1to2/1"/>
    </vehicle>
    <vehicle id="299" depart="299.00">
        <route edges="513/1to512/1"/>
    </vehicle>
    <vehicle id="300" depart="300.00">
        <route edges="513/1to512/1 1/1to1024/1"/>
    </vehicle>
    <vehicle id="301" depart="301.00">
        <route edges="513/1to514/1"/>
    </vehicle>
    <vehicle id="303" depart="303.00">
        <route edges="513/1to512/1"/>
    </vehicle>
    <vehicle id="304" depart="304.00">
        <route edges="1/1to1024/1 513/1to512/1"/>
    </vehicle>
    <vehicle id="313" depart="313.00">
        <route edges="513/1to514/1 1/1to2/1"/>
    </vehicle>
    <vehicle id="314" depart="314.00">
        <route edges="1/1to2/1"/>
    </vehicle>
    <vehicle id="315" depart="315.00">
        <route edges="513/1to512/1 1/1to1024/1"/>
    </vehicle>
    <vehicle id="319" depart="319.00">
        <route edges="513/1to514/1 1/1to2/1"/>
    </vehicle>
    <vehicle id="322" depart="322.00">
        <route edges="513/1to512/1 1/1to1024/1"/>
    </vehicle>
    <vehicle id="323" depart="323.00">
        <route edges="513/1to514/1"/>
    </vehicle>
    <vehicle id="327" depart="327.00">
        <route edges="1/1to2/1"/>
    </vehicle>
    <vehicle id="329" depart="329.00">
        <route edges="1/1to1024/1"/>
    </vehicle>
    <vehicle id="330" depart="330.00">
        <route edges="513/1to512/1 1/1to1024/1"/>
    </vehicle>
    <vehicle id="332" depart="332.00">
        <route edges="1/1to2/1"/>
    </vehicle>
    <vehicle id="334" depart="334.00">
        <route edges="1/1to1024/1 513/1to512/1"/>
    </vehicle>
    <vehicle id="337" depart="337.00">
        <route edges="1/1to1024/1 513/1to512/1"/>
    </vehicle>
    <vehicle id="338" depart="338.00">
        <route edges="513/1to512/1 1/1to1024/1"/>
    </vehicle>
    <vehicle id="341" depart="341.00">
        <route edges="1/1to1024/1 513/1to512/1"/>
    </vehicle>
    <vehicle id="343" depart="343.00">
        <route edges="513/1to512/1"/>
    </vehicle>
    <vehicle id="345" depart="345.00">
        <route edges="513/1to514/1 1/1to2/1"/>
    </vehicle>
    <vehicle id="346" depart="346.00">
        <route edges="513/1to512/1 1/1to1024/1"/>
    </vehicle>
    <vehicle id="350" depart="350.00">
        <route edges="513/1to512/1"/>
    </vehicle>
    <vehicle id="351" depart="351.00">
        <route edges="513/1to512/1 1/1to1024/1"/>
    </vehicle>
    <vehicle id="354" depart="354.00">
        <route edges="1/1to1024/1"/>
    </vehicle>
    <vehicle id="355" depart="355.00">
        <route edges="513/1to512/1"/>
    </vehicle>
    <vehicle id="357" depart="357.00">
        <route edges="1/1to1024/1 513/1to512/1"/>
    </vehicle>
    <vehicle id="358" depart="358.00">
        <route edges="513/1to512/1"/>
    </vehicle>
    <vehicle id="364" depart="364.00">
        <route edges="513/1to512/1 1/1to1024/1"/>
    </vehicle>
    <vehicle id="366" depart="366.00">
        <route edges="513/1to512/1 1/1to1024/1"/>
    </vehicle>
    <vehicle id="367" depart="367.00">
        <route edges="1/1to1024/1 513/1to512/1"/>
    </vehicle>
    <vehicle id="368" depart="368.00">
        <route edges="513/1to514/1"/>
    </vehicle>
    <vehicle id="370" depart="370.00">
        <route edges="513/1to512/1 1/1to1024/1"/>
    </vehicle>
    <vehicle id="372" depart="372.00">
        <route edges="1/1to1024/1"/>
    </vehicle>
    <vehicle id="373" depart="373.00">
        <route edges="1/1to2/1"/>
    </vehicle>
    <vehicle id="375" depart="375.00">
        <route edges="513/1to514/1 1/1to2/1"/>
    </vehicle>
    <vehicle id="377" depart="377.00">
        <route edges="1/1to2/1 513/1to514/1"/>
    </vehicle>
    <vehicle id="378" depart="378.00">
        <route edges="1/1to2/1"/>
    </vehicle>
    <vehicle id="379" depart="379.00">
        <route edges="513/1to512/1 1/1to1024/1"/>
    </vehicle>
    <vehicle id="381" depart="381.00">
        <route edges="1/1to1024/1"/>
    </vehicle>
    <vehicle id="382" depart="382.00">
        <route edges="1/1to1024/1"/>
    </vehicle>
    <vehicle id="385" depart="385.00">
        <route edges="1/1to2/1"/>
    </vehicle>
    <vehicle id="387" depart="387.00">
        <route edges="513/1to512/1 1/1to1024/1"/>
    </vehicle>
    <vehicle id="389" depart="389.00">
        <route edges="1/1to2/1"/>
    </vehicle>
    <vehicle id="390" depart="390.00">
        <route edges="513/1to512/1"/>
    </vehicle>
    <vehicle id="392" depart="392.00">
        <route edges="1/1to2/1"/>
    </vehicle>
    <vehicle id="394" depart="394.00">
        <route edges="1/1to2/1"/>
    </vehicle>
    <vehicle id="396" depart="396.00">
        <route edges="1/1to2/1"/>
    </vehicle>
    <vehicle id="398" depart="398.00">
        <route edges="513/1to514/1"/>
    </vehicle>
    <vehicle id="399" depart="399.00">
        <route edges="1/1to1024/1"/>
    </vehicle>
    <vehicle id="401" depart="401.00">
        <route edges="1/1to2/1"/>
    </vehicle>
    <vehicle id="402" depart="402.00">
        <route edges="513/1to514/1 1/1to2/1"/>
    </vehicle>
    <vehicle id="404" depart="404.00">
        <route edges="1/1to1024/1 513/1to512/1"/>
    </vehicle>
    <vehicle id="406" depart="406.00">
        <route edges="513/1to514/1"/>
    </vehicle>
    <vehicle id="412" depart="412.00">
        <route edges="513/1to512/1 1/1to1024/1"/>
    </vehicle>
    <vehicle id="414" depart="414.00">
        <route edges="1/1to2/1 513/1to514/1"/>
    </vehicle>
    <vehicle id="415" depart="415.00">
        <route edges="513/1to512/1"/>
    </vehicle>
    <vehicle id="419" depart="419.00">
        <route edges="1/1to2/1"/>
    </vehicle>
    <vehicle id="420" depart="420.00">
        <route edges="1/1to2/1"/>
    </vehicle>
    <vehicle id="423" depart="423.00">
        <route edges="1/1to2/1 513/1to514/1"/>
    </vehicle>
    <vehicle id="429" depart="429.00">
        <route edges="513/1to514/1 1/1to2/1"/>
    </vehicle>
    <vehicle id="430" depart="430.00">
        <route edges="1/1to2/1"/>
    </vehicle>
    <vehicle id="432" depart="432.00">
        <route edges="513/1to512/1"/>
    </vehicle>
    <vehicle id="436" depart="436.00">
        <route edges="1/1to1024/1 513/1to512/1"/>
    </vehicle>
    <vehicle id="439" depart="439.00">
        <route edges="1/1to1024/1"/>
    </vehicle>
    <vehicle id="442" depart="442.00">
        <route edges="1/1to1024/1 513/1to512/1"/>
    </vehicle>
    <vehicle id="443" depart="443.00">
        <route edges="1/1to1024/1 513/1to512/1"/>
    </vehicle>
    <vehicle id="444" depart="444.00">
        <route edges="1/1to1024/1 513/1to512/1"/>
    </vehicle>
    <vehicle id="446" depart="446.00">
        <route edges="1/1to2/1"/>
    </vehicle>
    <vehicle id="448" depart="448.00">
        <route edges="513/1to512/1 1/1to1024/1"/>
    </vehicle>
    <vehicle id="450" depart="450.00">
        <route edges="1/1to1024/1"/>
    </vehicle>
    <vehicle id="451" depart="451.00">
        <route edges="513/1to514/1"/>
    </vehicle>
    <vehicle id="452" depart="452.00">
        <route edges="1/1to2/1 513/1to514/1"/>
    </vehicle>
    <vehicle id="455" depart="455.00">
        <route edges="1/1to2/1"/>
    </vehicle>
    <vehicle id="456" depart="456.00">
        <route edges="1/1to1024/1"/>
    </vehicle>
    <vehicle id="457" depart="457.00">
        <route edges="513/1to512/1 1/1to1024/1"/>
    </vehicle>
    <vehicle id="459" depart="459.00">
        <route edges="1/1to1024/1 513/1to512/1"/>
    </vehicle>
    <vehicle id="461" depart="461.00">
        <route edges="1/1to2/1 513/1to514/1"/>
    </vehicle>
    <vehicle id="462" depart="462.00">
        <route edges="1/1to1024/1 513/1to512/1"/>
    </vehicle>
    <vehicle id="463" depart="463.00">
        <route edges="1/1to2/1"/>
    </vehicle>
    <vehicle id="465" depart="465.00">
        <route edges="1/1to2/1"/>
    </vehicle>
    <vehicle id="467" depart="467.00">
        <route edges="1/1to2/1"/>
    </vehicle>
    <vehicle id="469" depart="469.00">
        <route edges="1/1to2/1"/>
    </vehicle>
    <vehicle id="471" depart="471.00">
        <route edges="513/1to514/1 1/1to2/1"/>
    </vehicle>
    <vehicle id="474" depart="474.00">
        <route edges="1/1to1024/1 513/1to512/1"/>
    </vehicle>
    <vehicle id="476" depart="476.00">
        <route edges="513/1to512/1 1/1to1024/1"/>
    </vehicle>
    <vehicle id="477" depart="477.00">
        <route edges="1/1to2/1"/>
    </vehicle>
    <vehicle id="479" depart="479.00">
        <route edges="1/1to1024/1 513/1to512/1"/>
    </vehicle>
    <vehicle id="482" depart="482.00">
        <route edges="1/1to1024/1 513/1to512/1"/>
    </vehicle>
    <vehicle id="484" depart="484.00">
        <route edges="1/1to1024/1 513/1to512/1"/>
    </vehicle>
    <vehicle id="486" depart="486.00">
        <route edges="1/1to2/1"/>
    </vehicle>
    <vehicle id="488" depart="488.00">
        <route edges="513/1to514/1"/>
    </vehicle>
    <vehicle id="490" depart="490.00">
        <route edges="1/1to1024/1 513/1to512/1"/>
    </vehicle>
    <vehicle id="496" depart="496.00">
        <route edges="1/1to1024/1 513/1to512/1"/>
    </vehicle>
    <vehicle id="497" depart="497.00">
        <route edges="1/1to1024/1"/>
    </vehicle>
    <vehicle id="499" depart="499.00">
        <route edges="513/1to514/1"/>
    </vehicle>
    <vehicle id="502" depart="502.00">
        <route edges="1/1to1024/1"/>
    </vehicle>
    <vehicle id="504" depart="504.00">
        <route edges="1/1to1024/1 513/1to512/1"/>
    </vehicle>
    <vehicle id="505" depart="505.00">
        <route edges="1/1to2/1 513/1to514/1"/>
    </vehicle>
    <vehicle id="506" depart="506.00">
        <route edges="513/1to514/1 1/1to2/1"/>
    </vehicle>
    <vehicle id="507" depart="507.00">
        <route edges="513/1to512/1 1/1to1024/1"/>
    </vehicle>
    <vehicle id="509" depart="509.00">
        <route edges="513/1to514/1 1/1to2/1"/>
    </vehicle>
    <vehicle id="511" depart="511.00">
        <route edges="1/1to1024/1"/>
    </vehicle>
    <vehicle id="513" depart="513.00">
        <route edges="1/1to2/1"/>
    </vehicle>
    <vehicle id="516" depart="516.00">
        <route edges="513/1to514/1"/>
    </vehicle>
    <vehicle id="519" depart="519.00">
        <route edges="513/1to512/1"/>
    </vehicle>
    <vehicle id="523" depart="523.00">
        <route edges="1/1to1024/1 513/1to512/1"/>
    </vehicle>
    <vehicle id="525" depart="525.00">
        <route edges="513/1to514/1 1/1to2/1"/>
    </vehicle>
    <vehicle id="526" depart="526.00">
        <route edges="513/1to514/1 1/1to2/1"/>
    </vehicle>
    <vehicle id="527" depart="527.00">
        <route edges="1/1to1024/1 513/1to512/1"/>
    </vehicle>
    <vehicle id="528" depart="528.00">
        <route edges="513/1to512/1 1/1to1024/1"/>
    </vehicle>
    <vehicle id="529" depart="529.00">
        <route edges="1/1to1024/1"/>
    </vehicle>
    <vehicle id="532" depart="532.00">
        <route edges="1/1to2/1 513/1to514/1"/>
    </vehicle>
    <vehicle id="533" depart="533.00">
        <route edges="1/1to1024/1"/>
    </vehicle>
    <vehicle id="534" depart="534.00">
        <route edges="1/1to2/1 513/1to514/1"/>
    </vehicle>
    <vehicle id="535" depart="535.00">
        <route edges="513/1to514/1 1/1to2/1"/>
    </vehicle>
    <vehicle id="536" depart="536.00">
        <route edges="513/1to512/1"/>
    </vehicle>
    <vehicle id="537" depart="537.00">
        <route edges="513/1to514/1"/>
    </vehicle>
    <vehicle id="539" depart="539.00">
        <route edges="513/1to512/1"/>
    </vehicle>
    <vehicle id="541" depart="541.00">
        <route edges="513/1to514/1 1/1to2/1"/>
    </vehicle>
    <vehicle id="542" depart="542.00">
        <route edges="513/1to512/1"/>
    </vehicle>
    <vehicle id="543" depart="543.00">
        <route edges="1/1to1024/1 513/1to512/1"/>
    </vehicle>
    <vehicle id="548" depart="548.00">
        <route edges="513/1to512/1 1/1to1024/1"/>
    </vehicle>
    <vehicle id="549" depart="549.00">
        <route edges="1/1to1024/1"/>
    </vehicle>
    <vehicle id="550" depart="550.00">
        <route edges="513/1to512/1 1/1to1024/1"/>
    </vehicle>
    <vehicle id="551" depart="551.00">
        <route edges="513/1to512/1"/>
    </vehicle>
    <vehicle id="553" depart="553.00">
        <route edges="513/1to514/1 1/1to2/1"/>
    </vehicle>
    <vehicle id="554" depart="554.00">
        <route edges="513/1to512/1 1/1to1024/1"/>
    </vehicle>
    <vehicle id="556" depart="556.00">
        <route edges="513/1to514/1"/>
    </vehicle>
    <vehicle id="558" depart="558.00">
        <route edges="513/1to514/1 1/1to2/1"/>
    </vehicle>
    <vehicle id="559" depart="559.00">
        <route edges="513/1to514/1 1/1to2/1"/>
    </vehicle>
    <vehicle id="560" depart="560.00">
        <route edges="513/1to512/1"/>
    </vehicle>
    <vehicle id="561" depart="561.00">
        <route edges="513/1to512/1"/>
    </vehicle>
    <vehicle id="562" depart="562.00">
        <route edges="1/1to1024/1 513/1to512/1"/>
    </vehicle>
    <vehicle id="563" depart="563.00">
        <route edges="513/1to514/1"/>
    </vehicle>
    <vehicle id="565" depart="565.00">
        <route edges="1/1to2/1"/>
    </vehicle>
    <vehicle id="566" depart="566.00">
        <route edges="513/1to512/1 1/1to1024/1"/>
    </vehicle>
    <vehicle id="567" depart="567.00">
        <route edges="513/1to512/1 1/1to1024/1"/>
    </vehicle>
    <vehicle id="571" depart="571.00">