<?xml version="1.0" encoding="UTF-8"?>

<!-- generated on Thu Aug 31 12:23:35 2017 by SUMO netconvert Version 0.25.0
<?xml version="1.0" encoding="UTF-8"?>

<configuration xmlns:xsi="http://www.w3.org/2001/XMLSchema-instance" xsi:noNamespaceSchemaLocation="http://sumo.dlr.de/xsd/netconvertConfiguration.xsd">

    <input>
        <node-files value="hynets.nod.xml"/>
        <edge-files value="hynets.edg.xml"/>
        <connection-files value="hynets.con.xml"/>
    </input>

    <output>
        <output-file value="hynets.net.xml"/>
    </output>

    <processing>
        <no-internal-links value="true"/>
        <no-turnarounds value="true"/>
        <geometry.remove value="true"/>
        <geometry.remove.keep-edges.explicit value="1/1to1024/1"/>
    </processing>

</configuration>
-->

<net version="0.25" xmlns:xsi="http://www.w3.org/2001/XMLSchema-instance" xsi:noNamespaceSchemaLocation="http://sumo.dlr.de/xsd/net_file.xsd">

    <location netOffset="250.00,250.00" convBoundary="0.00,0.00,500.00,500.00" origBoundary="-250.00,-250.00,250.00,250.00" projParameter="!"/>

    <edge id="1/1to1024/1" from="1/1" to="513/1" priority="-1" shape="500.00,250.00 500.00,248.47 499.98,246.93 499.96,245.40 499.92,243.86 499.88,242.33 499.83,240.80 499.77,239.27 499.70,237.73 499.62,236.20 499.53,234.67 499.43,233.14 499.32,231.61 499.21,230.08 499.08,228.55 498.94,227.02 498.80,225.50 498.64,223.97 498.48,222.44 498.30,220.92 498.12,219.40 497.93,217.88 497.73,216.35 497.51,214.84 497.29,213.32 497.06,211.80 496.83,210.29 496.58,208.77 496.32,207.26 496.05,205.75 495.78,204.24 495.49,202.73 495.20,201.23 494.89,199.72 494.58,198.22 494.26,196.72 493.93,195.22 493.58,193.73 493.23,192.24 492.88,190.74 492.51,189.25 492.13,187.77 491.74,186.28 491.35,184.80 490.94,183.32 490.53,181.84 490.11,180.37 489.68,178.90 489.24,177.43 488.79,175.96 488.33,174.50 487.86,173.04 487.38,171.58 486.90,170.12 486.40,168.67 485.90,167.22 485.39,165.78 484.86,164.33 484.33,162.90 483.80,161.46 483.25,160.03 482.69,158.60 482.13,157.17 481.55,155.75 480.97,154.33 480.38,152.91 479.78,151.50 479.17,150.09 478.55,148.69 477.93,147.29 477.29,145.89 476.65,144.50 476.00,143.11 475.34,141.73 474.67,140.35 473.99,138.97 473.31,137.60 472.61,136.23 471.91,134.87 471.20,133.51 470.48,132.15 469.75,130.80 469.02,129.45 468.27,128.11 467.52,126.78 466.76,125.44 465.99,124.12 465.22,122.79 464.43,121.47 463.64,120.16 462.84,118.85 462.03,117.55 461.21,116.25 460.39,114.96 459.56,113.67 458.72,112.39 457.87,111.11 457.01,109.83 456.15,108.57 455.28,107.30 454.40,106.05 453.51,104.80 452.61,103.55 451.71,102.31 450.80,101.08 449.88,99.85 448.96,98.62 448.03,97.40 447.09,96.19 446.14,94.99 445.18,93.79 444.22,92.59 443.25,91.40 442.28,90.22 441.29,89.04 440.30,87.87 439.30,86.71 438.30,85.55 437.28,84.40 436.26,83.25 435.24,82.11 434.20,80.98 433.16,79.85 432.12,78.73 431.06,77.61 430.00,76.51 428.93,75.41 427.86,74.31 426.78,73.22 425.69,72.14 424.59,71.07 423.49,70.00 422.39,68.94 421.27,67.88 420.15,66.84 419.02,65.80 417.89,64.76 416.75,63.74 415.60,62.72 414.45,61.70 413.29,60.70 412.13,59.70 410.96,58.71 409.78,57.72 408.60,56.75 407.41,55.78 406.21,54.82 405.01,53.86 403.81,52.91 402.60,51.97 401.38,51.04 400.15,50.12 398.92,49.20 397.69,48.29 396.45,47.39 395.20,46.49 393.95,45.60 392.70,44.72 391.43,43.85 390.17,42.99 388.89,42.13 387.61,41.28 386.33,40.44 385.04,39.61 383.75,38.79 382.45,37.97 381.15,37.16 379.84,36.36 378.53,35.57 377.21,34.78 375.88,34.01 374.56,33.24 373.22,32.48 371.89,31.73 370.55,30.98 369.20,30.25 367.85,29.52 366.49,28.80 365.13,28.09 363.77,27.39 362.40,26.69 361.03,26.01 359.65,25.33 358.27,24.66 356.89,24.00 355.50,23.35 354.11,22.71 352.71,22.07 351.31,21.45 349.91,20.83 348.50,20.22 347.09,19.62 345.67,19.03 344.25,18.45 342.83,17.87 341.40,17.31 339.97,16.75 338.54,16.20 337.10,15.67 335.67,15.14 334.22,14.61 332.78,14.10 331.33,13.60 329.88,13.10 328.42,12.62 326.96,12.14 325.50,11.67 324.04,11.21 322.57,10.76 321.10,10.32 319.63,9.89 318.16,9.47 316.68,9.06 315.20,8.65 313.72,8.26 312.23,7.87 310.75,7.49 309.26,7.12 307.76,6.77 306.27,6.42 304.78,6.07 303.28,5.74 301.78,5.42 300.28,5.11 298.77,4.80 297.27,4.51 295.76,4.22 294.25,3.95 292.74,3.68 291.23,3.42 289.71,3.17 288.20,2.94 286.68,2.71 285.16,2.49 283.65,2.27 282.12,2.07 280.60,1.88 279.08,1.70 277.56,1.52 276.03,1.36 274.50,1.20 272.98,1.06 271.45,0.92 269.92,0.79 268.39,0.68 266.86,0.57 265.33,0.47 263.80,0.38 262.27,0.30 260.73,0.23 259.20,0.17 257.67,0.12 256.14,0.08 254.60,0.04 253.07,0.02 251.53,0.00 250.00,0.00 248.47,0.00 246.93,0.02 245.40,0.04 243.86,0.08 242.33,0.12 240.80,0.17 239.27,0.23 237.73,0.30 236.20,0.38 234.67,0.47 233.14,0.57 231.61,0.68 230.08,0.79 228.55,0.92 227.02,1.06 225.50,1.20 223.97,1.36 222.44,1.52 220.92,1.70 219.40,1.88 217.88,2.07 216.35,2.27 214.84,2.49 213.32,2.71 211.80,2.94 210.29,3.17 208.77,3.42 207.26,3.68 205.75,3.95 204.24,4.22 202.73,4.51 201.23,4.80 199.72,5.11 198.22,5.42 196.72,5.74 195.22,6.07 193.73,6.42 192.24,6.77 190.74,7.12 189.25,7.49 187.77,7.87 186.28,8.26 184.80,8.65 183.32,9.06 181.84,9.47 180.37,9.89 178.90,10.32 177.43,10.76 175.96,11.21 174.50,11.67 173.04,12.14 171.58,12.62 170.12,13.10 168.67,13.60 167.22,14.10 165.78,14.61 164.33,15.14 162.90,15.67 161.46,16.20 160.03,16.75 158.60,17.31 157.17,17.87 155.75,18.45 154.33,19.03 152.91,19.62 151.50,20.22 150.09,20.83 148.69,21.45 147.29,22.07 145.89,22.71 144.50,23.35 143.11,24.00 141.73,24.66 140.35,25.33 138.97,26.01 137.60,26.69 136.23,27.39 134.87,28.09 133.51,28.80 132.15,29.52 130.80,30.25 129.45,30.98 128.11,31.73 126.78,32.48 125.44,33.24 124.12,34.01 122.79,34.78 121.47,35.57 120.16,36.36 118.85,37.16 117.55,37.97 116.25,38.79 114.96,39.61 113.67,40.44 112.39,41.28 111.11,42.13 109.83,42.99 108.57,43.85 107.30,44.72 106.05,45.60 104.80,46.49 103.55,47.39 102.31,48.29 101.08,49.20 99.85,50.12 98.62,51.04 97.40,51.97 96.19,52.91 94.99,53.86 93.79,54.82 92.59,55.78 91.40,56.75 90.22,57.72 89.04,58.71 87.87,59.70 86.71,60.70 85.55,61.70 84.40,62.72 83.25,63.74 82.11,64.76 80.98,65.80 79.85,66.84 78.73,67.88 77.61,68.94 76.51,70.00 75.41,71.07 74.31,72.14 73.22,73.22 72.14,74.31 71.07,75.41 70.00,76.51 68.94,77.61 67.88,78.73 66.84,79.85 65.80,80.98 64.76,82.11 63.74,83.25 62.72,84.40 61.70,85.55 60.70,86.71 59.70,87.87 58.71,89.04 57.72,90.22 56.75,91.40 55.78,92.59 54.82,93.79 53.86,94.99 52.91,96.19 51.97,97.40 51.04,98.62 50.12,99.85 49.20,101.08 48.29,102.31 47.39,103.55 46.49,104.80 45.60,106.05 44.72,107.30 43.85,108.57 42.99,109.83 42.13,111.11 41.28,112.39 40.44,113.67 39.61,114.96 38.79,116.25 37.97,117.55 37.16,118.85 36.36,120.16 35.57,121.47 34.78,122.79 34.01,124.12 33.24,125.44 32.48,126.78 31.73,128.11 30.98,129.45 30.25,130.80 29.52,132.15 28.80,133.51 28.09,134.87 27.39,136.23 26.69,137.60 26.01,138.97 25.33,140.35 24.66,141.73 24.00,143.11 23.35,144.50 22.71,145.89 22.07,147.29 21.45,148.69 20.83,150.09 20.22,151.50 19.62,152.91 19.03,154.33 18.45,155.75 17.87,157.17 17.31,158.60 16.75,160.03 16.20,161.46 15.67,162.90 15.14,164.33 14.61,165.78 14.10,167.22 13.60,168.67 13.10,170.12 12.62,171.58 12.14,173.04 11.67,174.50 11.21,175.96 10.76,177.43 10.32,178.90 9.89,180.37 9.47,181.84 9.06,183.32 8.65,184.80 8.26,186.28 7.87,187.77 7.49,189.25 7.12,190.74 6.77,192.24 6.42,193.73 6.07,195.22 5.74,196.72 5.42,198.22 5.11,199.72 4.80,201.23 4.51,202.73 4.22,204.24 3.95,205.75 3.68,207.26 3.42,208.77 3.17,210.29 2.94,211.80 2.71,213.32 2.49,214.84 2.27,216.35 2.07,217.88 1.88,219.40 1.70,220.92 1.52,222.44 1.36,223.97 1.20,225.50 1.06,227.02 0.92,228.55 0.79,230.08 0.68,231.61 0.57,233.14 0.47,234.67 0.38,236.20 0.30,237.73 0.23,239.27 0.17,240.80 0.12,242.33 0.08,243.86 0.04,245.40 0.02,246.93 0.00,248.47 0.00,250.00">
        <lane id="1/1to1024/1_0" index="0" speed="13.90" length="785.40" shape="498.35,250.00 498.35,248.48 498.33,246.95 498.31,245.43 498.27,243.90 498.23,242.38 498.18,240.86 498.12,239.34 498.05,237.81 497.97,236.29 497.88,234.77 497.78,233.25 497.67,231.73 497.57,230.21 497.44,228.70 497.30,227.17 497.16,225.66 497.00,224.14 496.84,222.62 496.66,221.11 496.48,219.60 496.29,218.09 496.10,216.58 495.88,215.08 495.66,213.56 495.43,212.05 495.20,210.55 494.95,209.04 494.69,207.55 494.43,206.04 494.16,204.54 493.87,203.04 493.58,201.55 493.27,200.05 492.97,198.56 492.65,197.07 492.32,195.59 491.97,194.11 491.62,192.62 491.28,191.13 490.91,189.65 490.53,188.18 490.14,186.70 489.76,185.23 489.35,183.76 488.94,182.29 488.52,180.83 488.10,179.37 487.66,177.91 487.21,176.45 486.76,175.00 486.29,173.55 485.81,172.10 485.34,170.65 484.84,169.21 484.34,167.76 483.84,166.34 483.31,164.90 482.78,163.47 482.26,162.04 481.71,160.63 481.15,159.20 480.60,157.78 480.02,156.37 479.44,154.96 478.86,153.55 478.26,152.15 477.66,150.75 477.04,149.36 476.43,147.97 475.79,146.58 475.15,145.19 474.51,143.82 473.85,142.45 473.19,141.07 472.51,139.70 471.84,138.34 471.14,136.98 470.45,135.63 469.74,134.28 469.03,132.93 468.30,131.58 467.57,130.25 466.83,128.92 466.08,127.59 465.33,126.26 464.56,124.95 463.80,123.63 463.02,122.32 462.23,121.02 461.44,119.72 460.63,118.43 459.82,117.13 459.00,115.85 458.18,114.57 457.34,113.30 456.50,112.03 455.64,110.76 454.79,109.50 453.92,108.24 453.05,107.00 452.17,105.76 451.27,104.52 450.38,103.29 449.48,102.06 448.56,100.84 447.64,99.61 446.72,98.41 445.79,97.21 444.85,96.02 443.89,94.82 442.94,93.63 441.97,92.45 441.01,91.27 440.03,90.10 439.05,88.94 438.05,87.79 437.06,86.64 436.05,85.49 435.03,84.35 434.02,83.22 432.99,82.10 431.95,80.97 430.92,79.86 429.87,78.75 428.81,77.66 427.75,76.56 426.68,75.47 425.61,74.39 424.53,73.32 423.44,72.25 422.34,71.19 421.25,70.13 420.14,69.08 419.03,68.05 417.90,67.01 416.78,65.98 415.65,64.97 414.51,63.95 413.36,62.94 412.21,61.95 411.06,60.95 409.90,59.97 408.73,58.99 407.55,58.03 406.37,57.06 405.18,56.11 403.98,55.15 402.79,54.21 401.59,53.28 400.39,52.36 399.16,51.44 397.94,50.52 396.71,49.62 395.48,48.73 394.24,47.83 393.00,46.95 391.76,46.08 390.50,45.21 389.24,44.36 387.97,43.50 386.70,42.66 385.43,41.82 384.15,41.00 382.87,40.18 381.57,39.37 380.28,38.56 378.98,37.77 377.68,36.98 376.37,36.20 375.05,35.44 373.74,34.67 372.41,33.92 371.08,33.17 369.75,32.43 368.42,31.70 367.07,30.97 365.72,30.26 364.37,29.55 363.02,28.86 361.66,28.16 360.30,27.49 358.93,26.81 357.55,26.15 356.18,25.49 354.81,24.85 353.42,24.21 352.03,23.57 350.64,22.96 349.25,22.34 347.85,21.74 346.45,21.14 345.04,20.56 343.63,19.98 342.22,19.40 340.80,18.85 339.37,18.29 337.96,17.74 336.53,17.22 335.10,16.69 333.66,16.16 332.24,15.66 330.79,15.16 329.35,14.66 327.90,14.19 326.45,13.71 325.00,13.24 323.55,12.79 322.09,12.34 320.63,11.90 319.17,11.48 317.71,11.06 316.24,10.65 314.77,10.24 313.30,9.86 311.82,9.47 310.35,9.09 308.87,8.72 307.38,8.38 305.89,8.03 304.41,7.68 302.93,7.35 301.44,7.03 299.95,6.73 298.45,6.42 296.96,6.13 295.46,5.84 293.96,5.57 292.45,5.31 290.96,5.05 289.45,4.80 287.95,4.57 286.44,4.34 284.92,4.12 283.42,3.90 281.91,3.71 280.40,3.52 278.89,3.34 277.38,3.16 275.86,3.00 274.34,2.84 272.83,2.70 271.30,2.56 269.79,2.43 268.27,2.33 266.75,2.22 265.23,2.12 263.71,2.03 262.19,1.95 260.66,1.88 259.14,1.82 257.62,1.77 256.10,1.73 254.57,1.69 253.05,1.67 251.52,1.65 250.00,1.65 248.48,1.65 246.95,1.67 245.43,1.69 243.90,1.73 242.38,1.77 240.86,1.82 239.34,1.88 237.81,1.95 236.29,2.03 234.77,2.12 233.25,2.22 231.73,2.33 230.21,2.43 228.70,2.56 227.17,2.70 225.66,2.84 224.14,3.00 222.62,3.16 221.11,3.34 219.60,3.52 218.09,3.71 216.58,3.90 215.08,4.12 213.56,4.34 212.05,4.57 210.55,4.80 209.04,5.05 207.55,5.31 206.04,5.57 204.54,5.84 203.04,6.13 201.55,6.42 200.05,6.73 198.56,7.03 197.07,7.35 195.59,7.68 194.11,8.03 192.62,8.38 191.13,8.72 189.65,9.09 188.18,9.47 186.70,9.86 185.23,10.24 183.76,10.65 182.29,11.06 180.83,11.48 179.37,11.90 177.91,12.34 176.45,12.79 175.00,13.24 173.55,13.71 172.10,14.19 170.65,14.66 169.21,15.16 167.76,15.66 166.34,16.16 164.90,16.69 163.47,17.22 162.04,17.74 160.63,18.29 159.20,18.85 157.78,19.40 156.37,19.98 154.96,20.56 153.55,21.14 152.15,21.74 150.75,22.34 149.36,22.96 147.97,23.57 146.58,24.21 145.19,24.85 143.82,25.49 142.45,26.15 141.07,26.81 139.70,27.49 138.34,28.16 136.98,28.86 135.63,29.55 134.28,30.26 132.93,30.97 131.58,31.70 130.25,32.43 128.92,33.17 127.59,33.92 126.26,34.67 124.95,35.44 123.63,36.20 122.32,36.98 121.02,37.77 119.72,38.56 118.43,39.37 117.13,40.18 115.85,41.00 114.57,41.82 113.30,42.66 112.03,43.50 110.76,44.36 109.50,45.21 108.24,46.08 107.00,46.95 105.76,47.83 104.52,48.73 103.29,49.62 102.06,50.52 100.84,51.44 99.61,52.36 98.41,53.28 97.21,54.21 96.02,55.15 94.82,56.11 93.63,57.06 92.45,58.03 91.27,58.99 90.10,59.97 88.94,60.95 87.79,61.95 86.64,62.94 85.49,63.95 84.35,64.97 83.22,65.98 82.10,67.01 80.97,68.05 79.86,69.08 78.75,70.13 77.66,71.19 76.56,72.25 75.47,73.32 74.39,74.39 73.32,75.47 72.25,76.56 71.19,77.66 70.13,78.75 69.08,79.86 68.05,80.97 67.01,82.10 65.98,83.22 64.97,84.35 63.95,85.49 62.94,86.64 61.95,87.79 60.95,88.94 59.97,90.10 58.99,91.27 58.03,92.45 57.06,93.63 56.11,94.82 55.15,96.02 54.21,97.21 53.28,98.41 52.36,99.61 51.44,100.84 50.52,102.06 49.62,103.29 48.73,104.52 47.83,105.76 46.95,107.00 46.08,108.24 45.21,109.50 44.36,110.76 43.50,112.03 42.66,113.30 41.82,114.57 41.00,115.85 40.18,117.13 39.37,118.43 38.56,119.72 37.77,121.02 36.98,122.32 36.20,123.63 35.44,124.95 34.67,126.26 33.92,127.59 33.17,128.92 32.43,130.25 31.70,131.58 30.97,132.93 30.26,134.28 29.55,135.63 28.86,136.98 28.16,138.34 27.49,139.70 26.81,141.07 26.15,142.45 25.49,143.82 24.85,145.19 24.21,146.58 23.57,147.97 22.96,149.36 22.34,150.75 21.74,152.15 21.14,153.55 20.56,154.96 19.98,156.37 19.40,157.78 18.85,159.20 18.29,160.63 17.74,162.04 17.22,163.47 16.69,164.90 16.16,166.34 15.66,167.76 15.16,169.21 14.66,170.65 14.19,172.10 13.71,173.55 13.24,175.00 12.79,176.45 12.34,177.91 11.90,179.37 11.48,180.83 11.06,182.29 10.65,183.76 10.24,185.23 9.86,186.70 9.47,188.18 9.09,189.65 8.72,191.13 8.38,192.62 8.03,194.11 7.68,195.59 7.35,197.07 7.03,198.56 6.73,200.05 6.42,201.55 6.13,203.04 5.84,204.54 5.57,206.04 5.31,207.55 5.05,209.04 4.80,210.55 4.57,212.05 4.34,213.56 4.12,215.08 3.90,216.58 3.71,218.09 3.52,219.60 3.34,221.11 3.16,222.62 3.00,224.14 2.84,225.66 2.70,227.17 2.56,228.70 2.43,230.21 2.33,231.73 2.22,233.25 2.12,234.77 2.03,236.29 1.95,237.81 1.88,239.34 1.82,240.86 1.77,242.38 1.73,243.90 1.69,245.43 1.67,246.95 1.65,248.48 1.65,250.00"/>
    </edge>
    <edge id="1/1to2/1" from="1/1" to="513/1" priority="-1" shape="500.00,250.00 500.00,251.53 499.98,253.07 499.96,254.60 499.92,256.14 499.88,257.67 499.83,259.20 499.77,260.73 499.70,262.27 499.62,263.80 499.53,265.33 499.43,266.86 499.32,268.39 499.21,269.92 499.08,271.45 498.94,272.98 498.80,274.50 498.64,276.03 498.48,277.56 498.30,279.08 498.12,280.60 497.93,282.12 497.73,283.65 497.51,285.16 497.29,286.68 497.06,288.20 496.83,289.71 496.58,291.23 496.32,292.74 496.05,294.25 495.78,295.76 495.49,297.27 495.20,298.77 494.89,300.28 494.58,301.78 494.26,303.28 493.93,304.78 493.58,306.27 493.23,307.76 492.88,309.26 492.51,310.75 492.13,312.23 491.74,313.72 491.35,315.20 490.94,316.68 490.53,318.16 490.11,319.63 489.68,321.10 489.24,322.57 488.79,324.04 488.33,325.50 487.86,326.96 487.38,328.42 486.90,329.88 486.40,331.33 485.90,332.78 485.39,334.22 484.86,335.67 484.33,337.10 483.80,338.54 483.25,339.97 482.69,341.40 482.13,342.83 481.55,344.25 480.97,345.67 480.38,347.09 479.78,348.50 479.17,349.91 478.55,351.31 477.93,352.71 477.29,354.11 476.65,355.50 476.00,356.89 475.34,358.27 474.67,359.65 473.99,361.03 473.31,362.40 472.61,363.77 471.91,365.13 471.20,366.49 470.48,367.85 469.75,369.20 469.02,370.55 468.27,371.89 467.52,373.22 466.76,374.56 465.99,375.88 465.22,377.21 464.43,378.53 463.64,379.84 462.84,381.15 462.03,382.45 461.21,383.75 460.39,385.04 459.56,386.33 458.72,387.61 457.87,388.89 457.01,390.17 456.15,391.43 455.28,392.70 454.40,393.95 453.51,395.20 452.61,396.45 451.71,397.69 450.80,398.92 449.88,400.15 448.96,401.38 448.03,402.60 447.09,403.81 446.14,405.01 445.18,406.21 444.22,407.41 443.25,408.60 442.28,409.78 441.29,410.96 440.30,412.13 439.30,413.29 438.30,414.45 437.28,415.60 436.26,416.75 435.24,417.89 434.20,419.02 433.16,420.15 432.12,421.27 431.06,422.39 430.00,423.49 428.93,424.59 427.86,425.69 426.78,426.78 425.69,427.86 424.59,428.93 423.49,430.00 422.39,431.06 421.27,432.12 420.15,433.16 419.02,434.20 417.89,435.24 416.75,436.26 415.60,437.28 414.45,438.30 413.29,439.30 412.13,440.30 410.96,441.29 409.78,442.28 408.60,443.25 407.41,444.22 406.21,445.18 405.01,446.14 403.81,447.09 402.60,448.03 401.38,448.96 400.15,449.88 398.92,450.80 397.69,451.71 396.45,452.61 395.20,453.51 393.95,454.40 392.70,455.28 391.43,456.15 390.17,457.01 388.89,457.87 387.61,458.72 386.33,459.56 385.04,460.39 383.75,461.21 382.45,462.03 381.15,462.84 379.84,463.64 378.53,464.43 377.21,465.22 375.88,465.99 374.56,466.76 373.22,467.52 371.89,468.27 370.55,469.02 369.20,469.75 367.85,470.48 366.49,471.20 365.13,471.91 363.77,472.61 362.40,473.31 361.03,473.99 359.65,474.67 358.27,475.34 356.89,476.00 355.50,476.65 354.11,477.29 352.71,477.93 351.31,478.55 349.91,479.17 348.50,479.78 347.09,480.38 345.67,480.97 344.25,481.55 342.83,482.13 341.40,482.69 339.97,483.25 338.54,483.80 337.10,484.33 335.67,484.86 334.22,485.39 332.78,485.90 331.33,486.40 329.88,486.90 328.42,487.38 326.96,487.86 325.50,488.33 324.04,488.79 322.57,489.24 321.10,489.68 319.63,490.11 318.16,490.53 316.68,490.94 315.20,491.35 313.72,491.74 312.23,492.13 310.75,492.51 309.26,492.88 307.76,493.23 306.27,493.58 304.78,493.93 303.28,494.26 301.78,494.58 300.28,494.89 298.77,495.20 297.27,495.49 295.76,495.78 294.25,496.05 292.74,496.32 291.23,496.58 289.71,496.83 288.20,497.06 286.68,497.29 285.16,497.51 283.65,497.73 282.12,497.93 280.60,498.12 279.08,498.30 277.56,498.48 276.03,498.64 274.50,498.80 272.98,498.94 271.45,499.08 269.92,499.21 268.39,499.32 266.86,499.43 265.33,499.53 263.80,499.62 262.27,499.70 260.73,499.77 259.20,499.83 257.67,499.88 256.14,499.92 254.60,499.96 253.07,499.98 251.53,500.00 250.00,500.00 248.47,500.00 246.93,499.98 245.40,499.96 243.86,499.92 242.33,499.88 240.80,499.83 239.27,499.77 237.73,499.70 236.20,499.62 234.67,499.53 233.14,499.43 231.61,499.32 230.08,499.21 228.55,499.08 227.02,498.94 225.50,498.80 223.97,498.64 222.44,498.48 220.92,498.30 219.40,498.12 217.88,497.93 216.35,497.73 214.84,497.51 213.32,497.29 211.80,497.06 210.29,496.83 208.77,496.58 207.26,496.32 205.75,496.05 204.24,495.78 202.73,495.49 201.23,495.20 199.72,494.89 198.22,494.58 196.72,494.26 195.22,493.93 193.73,493.58 192.24,493.23 190.74,492.88 189.25,492.51 187.77,492.13 186.28,491.74 184.80,491.35 183.32,490.94 181.84,490.53 180.37,490.11 178.90,489.68 177.43,489.24 175.96,488.79 174.50,488.33 173.04,487.86 171.58,487.38 170.12,486.90 168.67,486.40 167.22,485.90 165.78,485.39 164.33,484.86 162.90,484.33 161.46,483.80 160.03,483.25 158.60,482.69 157.17,482.13 155.75,481.55 154.33,480.97 152.91,480.38 151.50,479.78 150.09,479.17 148.69,478.55 147.29,477.93 145.89,477.29 144.50,476.65 143.11,476.00 141.73,475.34 140.35,474.67 138.97,473.99 137.60,473.31 136.23,472.61 134.87,471.91 133.51,471.20 132.15,470.48 130.80,469.75 129.45,469.02 128.11,468.27 126.78,467.52 125.44,466.76 124.12,465.99 122.79,465.22 121.47,464.43 120.16,463.64 118.85,462.84 117.55,462.03 116.25,461.21 114.96,460.39 113.67,459.56 112.39,458.72 111.11,457.87 109.83,457.01 108.57,456.15 107.30,455.28 106.05,454.40 104.80,453.51 103.55,452.61 102.31,451.71 101.08,450.80 99.85,449.88 98.62,448.96 97.40,448.03 96.19,447.09 94.99,446.14 93.79,445.18 92.59,444.22 91.40,443.25 90.22,442.28 89.04,441.29 87.87,440.30 86.71,439.30 85.55,438.30 84.40,437.28 83.25,436.26 82.11,435.24 80.98,434.20 79.85,433.16 78.73,432.12 77.61,431.06 76.51,430.00 75.41,428.93 74.31,427.86 73.22,426.78 72.14,425.69 71.07,424.59 70.00,423.49 68.94,422.39 67.88,421.27 66.84,420.15 65.80,419.02 64.76,417.89 63.74,416.75 62.72,415.60 61.70,414.45 60.70,413.29 59.70,412.13 58.71,410.96 57.72,409.78 56.75,408.60 55.78,407.41 54.82,406.21 53.86,405.01 52.91,403.81 51.97,402.60 51.04,401.38 50.12,400.15 49.20,398.92 48.29,397.69 47.39,396.45 46.49,395.20 45.60,393.95 44.72,392.70 43.85,391.43 42.99,390.17 42.13,388.89 41.28,387.61 40.44,386.33 39.61,385.04 38.79,383.75 37.97,382.45 37.16,381.15 36.36,379.84 35.57,378.53 34.78,377.21 34.01,375.88 33.24,374.56 32.48,373.22 31.73,371.89 30.98,370.55 30.25,369.20 29.52,367.85 28.80,366.49 28.09,365.13 27.39,363.77 26.69,362.40 26.01,361.03 25.33,359.65 24.66,358.27 24.00,356.89 23.35,355.50 22.71,354.11 22.07,352.71 21.45,351.31 20.83,349.91 20.22,348.50 19.62,347.09 19.03,345.67 18.45,344.25 17.87,342.83 17.31,341.40 16.75,339.97 16.20,338.54 15.67,337.10 15.14,335.67 14.61,334.22 14.10,332.78 13.60,331.33 13.10,329.88 12.62,328.42 12.14,326.96 11.67,325.50 11.21,324.04 10.76,322.57 10.32,321.10 9.89,319.63 9.47,318.16 9.06,316.68 8.65,315.20 8.26,313.72 7.87,312.23 7.49,310.75 7.12,309.26 6.77,307.76 6.42,306.27 6.07,304.78 5.74,303.28 5.42,301.78 5.11,300.28 4.80,298.77 4.51,297.27 4.22,295.76 3.95,294.25 3.68,292.74 3.42,291.23 3.17,289.71 2.94,288.20 2.71,286.68 2.49,285.16 2.27,283.65 2.07,282.12 1.88,280.60 1.70,279.08 1.52,277.56 1.36,276.03 1.20,274.50 1.06,272.98 0.92,271.45 0.79,269.92 0.68,268.39 0.57,266.86 0.47,265.33 0.38,263.80 0.30,262.27 0.23,260.73 0.17,259.20 0.12,257.67 0.08,256.14 0.04,254.60 0.02,253.07 0.00,251.53 0.00,250.00">
        <lane id="1/1to2/1_0" index="0" speed="13.90" length="785.40" shape="501.65,250.00 501.65,251.54 501.63,253.09 501.61,254.63 501.57,256.18 501.53,257.72 501.48,259.26 501.42,260.80 501.35,262.35 501.27,263.89 501.18,265.43 501.08,266.97 500.97,268.51 500.85,270.05 500.72,271.60 500.58,273.13 500.44,274.66 500.28,276.20 500.12,277.74 499.94,279.27 499.76,280.80 499.57,282.33 499.36,283.88 499.14,285.40 498.92,286.92 498.69,288.45 498.46,289.97 498.21,291.50 497.95,293.03 497.67,294.54 497.40,296.06 497.11,297.58 496.82,299.09 496.51,300.61 496.19,302.12 495.87,303.63 495.54,305.15 495.19,306.65 494.84,308.14 494.48,309.65 494.11,311.15 493.73,312.64 493.34,314.14 492.94,315.63 492.53,317.12 492.12,318.61 491.70,320.09 491.26,321.57 490.82,323.05 490.37,324.53 489.90,326.00 489.43,327.47 488.95,328.94 488.46,330.41 487.96,331.87 487.46,333.32 486.94,334.78 486.41,336.24 485.88,337.67 485.34,339.12 484.79,340.57 484.23,342.00 483.66,343.44 483.08,344.87 482.50,346.30 481.90,347.73 481.30,349.15 480.68,350.57 480.06,351.98 479.43,353.39 478.79,354.80 478.15,356.19 477.49,357.60 476.83,358.99 476.15,360.37 475.47,361.76 474.78,363.14 474.08,364.52 473.37,365.89 472.66,367.26 471.93,368.63 471.20,369.98 470.47,371.35 469.71,372.70 468.96,374.03 468.19,375.38 467.42,376.71 466.64,378.05 465.84,379.38 465.05,380.70 464.24,382.02 463.43,383.33 462.60,384.63 461.78,385.93 460.94,387.23 460.10,388.52 459.24,389.81 458.38,391.10 457.51,392.36 456.64,393.64 455.75,394.90 454.85,396.16 453.95,397.42 453.04,398.67 452.12,399.90 451.20,401.14 450.28,402.37 449.34,403.61 448.39,404.83 447.43,406.04 446.47,407.24 445.50,408.45 444.53,409.65 443.55,410.83 442.55,412.02 441.55,413.20 440.55,414.37 439.54,415.54 438.51,416.69 437.49,417.85 436.46,419.00 435.41,420.14 434.37,421.27 433.32,422.40 432.25,423.53 431.19,424.64 430.11,425.74 429.04,426.85 427.95,427.95 426.85,429.04 425.74,430.11 424.64,431.19 423.53,432.25 422.40,433.32 421.27,434.37 420.14,435.41 419.00,436.46 417.85,437.49 416.69,438.51 415.54,439.54 414.37,440.55 413.20,441.55 412.02,442.55 410.83,443.55 409.65,444.53 408.45,445.50 407.24,446.47 406.04,447.43 404.83,448.39 403.61,449.34 402.37,450.28 401.14,451.20 399.90,452.12 398.67,453.04 397.42,453.95 396.16,454.85 394.90,455.75 393.64,456.64 392.36,457.51 391.10,458.38 389.81,459.24 388.52,460.10 387.23,460.94 385.93,461.78 384.63,462.60 383.33,463.43 382.02,464.24 380.70,465.05 379.38,465.84 378.05,466.64 376.71,467.42 375.38,468.19 374.03,468.96 372.70,469.71 371.35,470.47 369.98,471.20 368.63,471.93 367.26,472.66 365.89,473.37 364.52,474.08 363.14,474.78 361.76,475.47 360.37,476.15 358.99,476.83 357.60,477.49 356.19,478.15 354.80,478.79 353.39,479.43 351.98,480.06 350.57,480.68 349.15,481.30 347.73,481.90 346.30,482.50 344.87,483.08 343.44,483.66 342.00,484.23 340.57,484.79 339.12,485.34 337.67,485.88 336.24,486.41 334.78,486.94 333.32,487.46 331.87,487.96 330.41,488.46 328.94,488.95 327.47,489.43 326.00,489.90 324.53,490.37 323.05,490.82 321.57,491.26 320.09,491.70 318.61,492.12 317.12,492.53 315.63,492.94 314.14,493.34 312.64,493.73 311.15,494.11 309.65,494.48 308.14,494.84 306.65,495.19 305.15,495.54 303.63,495.87 302.12,496.19 300.61,496.51 299.09,496.82 297.58,497.11 296.06,497.40 294.54,497.67 293.03,497.95 291.50,498.21 289.97,498.46 288.45,498.69 286.92,498.92 285.40,499.14 283.88,499.36 282.33,499.57 280.80,499.76 279.27,499.94 277.74,500.12 276.20,500.28 274.66,500.44 273.13,500.58 271.60,500.72 270.05,500.85 268.51,500.97 266.97,501.08 265.43,501.18 263.89,501.27 262.35,501.35 260.80,501.42 259.26,501.48 257.72,501.53 256.18,501.57 254.63,501.61 253.09,501.63 251.54,501.65 250.00,501.65 248.46,501.65 246.91,501.63 245.37,501.61 243.82,501.57 242.28,501.53 240.74,501.48 239.20,501.42 237.65,501.35 236.11,501.27 234.57,501.18 233.03,501.08 231.49,500.97 229.95,500.85 228.40,500.72 226.87,500.58 225.34,500.44 223.80,500.28 222.26,500.12 220.73,499.94 219.20,499.76 217.67,499.57 216.12,499.36 214.60,499.14 213.08,498.92 211.55,498.69 210.03,498.46 208.50,498.21 206.97,497.95 205.46,497.67 203.94,497.40 202.42,497.11 200.91,496.82 199.39,496.51 197.88,496.19 196.37,495.87 194.85,495.54 193.35,495.19 191.86,494.84 190.35,494.48 188.85,494.11 187.36,493.73 185.86,493.34 184.37,492.94 182.88,492.53 181.39,492.12 179.91,491.70 178.43,491.26 176.95,490.82 175.47,490.37 174.00,489.90 172.53,489.43 171.06,488.95 169.59,488.46 168.13,487.96 166.68,487.46 165.22,486.94 163.76,486.41 162.33,485.88 160.88,485.34 159.43,484.79 158.00,484.23 156.56,483.66 155.13,483.08 153.70,482.50 152.27,481.90 150.85,481.30 149.43,480.68 148.02,480.06 146.61,479.43 145.20,478.79 143.81,478.15 142.40,477.49 141.01,476.83 139.63,476.15 138.24,475.47 136.86,474.78 135.48,474.08 134.11,473.37 132.74,472.66 131.37,471.93 130.02,471.20 128.65,470.47 127.30,469.71 125.97,468.96 124.62,468.19 123.29,467.42 121.95,466.64 120.62,465.84 119.30,465.05 117.98,464.24 116.67,463.43 115.37,462.60 114.07,461.78 112.77,460.94 111.48,460.10 110.19,459.24 108.90,458.38 107.64,457.51 106.36,456.64 105.10,455.75 103.84,454.85 102.58,453.95 101.33,453.04 100.10,452.12 98.86,451.20 97.63,450.28 96.39,449.34 95.17,448.39 93.96,447.43 92.76,446.47 91.55,445.50 90.35,444.53 89.17,443.55 87.98,442.55 86.80,441.55 85.63,440.55 84.46,439.54 83.31,438.51 82.15,437.49 81.00,436.46 79.86,435.41 78.73,434.37 77.60,433.32 76.47,432.25 75.36,431.19 74.26,430.11 73.15,429.04 72.05,427.95 70.96,426.85 69.89,425.74 68.81,424.64 67.75,423.53 66.68,422.40 65.63,421.27 64.59,420.14 63.54,419.00 62.51,417.85 61.49,416.69 60.46,415.54 59.45,414.37 58.45,413.20 57.45,412.02 56.45,410.83 55.47,409.65 54.50,408.45 53.53,407.24 52.57,406.04 51.61,404.83 50.66,403.61 49.72,402.37 48.80,401.14 47.88,399.90 46.96,398.67 46.05,397.42 45.15,396.16 44.25,394.90 43.36,393.64 42.49,392.36 41.62,391.10 40.76,389.81 39.90,388.52 39.06,387.23 38.22,385.93 37.40,384.63 36.57,383.33 35.76,382.02 34.95,380.70 34.16,379.38 33.36,378.05 32.58,376.71 31.81,375.38 31.04,374.03 30.29,372.70 29.53,371.35 28.80,369.98 28.07,368.63 27.34,367.26 26.63,365.89 25.92,364.52 25.22,363.14 24.53,361.76 23.85,360.37 23.17,358.99 22.51,357.60 21.85,356.19 21.21,354.80 20.57,353.39 19.94,351.98 19.32,350.57 18.70,349.15 18.10,347.73 17.50,346.30 16.92,344.87 16.34,343.44 15.77,342.00 15.21,340.57 14.66,339.12 14.12,337.67 13.59,336.24 13.06,334.78 12.54,333.32 12.04,331.87 11.54,330.41 11.05,328.94 10.57,327.47 10.10,326.00 9.63,324.53 9.18,323.05 8.74,321.57 8.30,320.09 7.88,318.61 7.47,317.12 7.06,315.63 6.66,314.14 6.27,312.64 5.89,311.15 5.52,309.65 5.16,308.14 4.81,306.65 4.46,305.15 4.13,303.63 3.81,302.12 3.49,300.61 3.18,299.09 2.89,297.58 2.60,296.06 2.33,294.54 2.05,293.03 1.79,291.50 1.54,289.97 1.31,288.45 1.08,286.92 0.86,285.40 0.64,283.88 0.43,282.33 0.24,280.80 0.06,279.27 -0.12,277.74 -0.28,276.20 -0.44,274.66 -0.58,273.13 -0.72,271.60 -0.85,270.05 -0.97,268.51 -1.08,266.97 -1.18,265.43 -1.27,263.89 -1.35,262.35 -1.42,260.80 -1.48,259.26 -1.53,257.72 -1.57,256.18 -1.61,254.63 -1.63,253.09 -1.65,251.54 -1.65,250.00"/>
    </edge>