<routes>
    <vType
        id="my_bike"
        vClass="bicycle"
        guiShape="bicycle"
        latAlignment="right"
        maxSpeedLat="1.0"
        personCapacity="1"
        laneChangeModel="SL2015"
        length="1.5"
        width="1.5"
        height="1.5"
        maxSpeed="8.33"
        minGap="0.75"
        emergencyDecel="9.0"
        decel="4.5"
        accel="2.6"
        speedDev="0.1"
        lcSublane="1"
    />
    <flow
        id="my_bike_flow"
        type="my_bike"
        begin="0"
        end="20"
        period="1"
    >
        <route edges="gneE0 gneE3 gneE5 gneE6"/>
    </flow>

    <vType
        id="ego-type"
        sigma="0.5"
        length="3.5"
        minGap="2.5"
        color="1,0,0"
    />
    <route
        id="ego-route"
        edges="gneE0 gneE3 gneE5 gneE6"
    />

</routes>
