<?xml version="1.0" encoding="UTF-8"?> 
<net version="1.1" junctionCornerDetail="5" limitTurnSpeed="5.50" xmlns:xsi="http://www.w3.org/2001/XMLSchema-instance" xsi:noNamespaceSchemaLocation="http://sumo.dlr.de/xsd/net_file.xsd">
<location netOffset="0.00,0.00" convBoundary="-100,-100,700,700" origBoundary="10000000000.00,10000000000.00,-10000000000.00,-10000000000.00" projParameter="+proj=utm +zone=32 +ellps=WGS84 +datum=WGS84 +units=m +no_defs"/>
<edge id=":gneJ0_0" function="internal">
	<lane id=":gneJ0_0_0" index="0" speed="13.89" length="9.988625" shape="-1.6,4.8 -1.112829,2.350826 0.2745166,0.2745166 2.350826,-1.112829 4.800001,-1.6"/>
</edge>
<edge id=":gneJ0_1" function="internal">
	<lane id=":gneJ0_1_0" index="0" speed="13.89" length="4.898348" shape="-1.6,4.8 -1.131371,3.668629 6.993822E-08,3.2 1.131371,3.668629 1.6,4.8"/>
</edge>
<edge id=":gneJ0_2" function="internal">
	<lane id=":gneJ0_2_0" index="0" speed="13.89" length="4.994313" shape="4.8,1.6 3.575413,1.843585 2.537258,2.537258 1.843585,3.575413 1.6,4.8"/>
</edge>
<edge id=":gneJ0_3" function="internal">
	<lane id=":gneJ0_3_0" index="0" speed="13.89" length="4.898348" shape="4.8,1.6 3.668629,1.131371 3.2,-6.993822E-08 3.668629,-1.131371 4.8,-1.6"/>
</edge>
<edge id=":gneJ1_0" function="internal">
	<lane id=":gneJ1_0_0" index="0" speed="13.89" length="9.599991" shape="-1.6,104.8 -1.6,102.4 -1.6,100 -1.6,97.60001 -1.6,95.2"/>
</edge>
<edge id=":gneJ1_1" function="internal">
	<lane id=":gneJ1_1_0" index="0" speed="13.89" length="9.988623" shape="-1.6,104.8 -1.112829,102.3508 0.2745171,100.2745 2.350827,98.88717 4.800001,98.4"/>
</edge>
<edge id=":gneJ1_2" function="internal">
	<lane id=":gneJ1_2_0" index="0" speed="13.89" length="4.898347" shape="-1.6,104.8 -1.131371,103.6686 6.993822E-08,103.2 1.131371,103.6686 1.6,104.8"/>
</edge>
<edge id=":gneJ1_3" function="internal">
	<lane id=":gneJ1_3_0" index="0" speed="13.89" length="4.994308" shape="4.8,101.6 3.575414,101.8436 2.537261,102.5373 1.843589,103.5754 1.600003,104.8"/>
</edge>
<edge id=":gneJ1_4" function="internal">
	<lane id=":gneJ1_4_0" index="0" speed="13.89" length="9.988622" shape="4.8,101.6 2.350827,101.1128 0.274518,99.72549 -1.112829,97.64918 -1.600001,95.2"/>
</edge>
<edge id=":gneJ1_5" function="internal">
	<lane id=":gneJ1_5_0" index="0" speed="13.89" length="4.898344" shape="4.8,101.6 3.668631,101.1314 3.200002,100 3.668631,98.86863 4.8,98.4"/>
</edge>
<edge id=":gneJ1_6" function="internal">
	<lane id=":gneJ1_6_0" index="0" speed="13.89" length="4.994311" shape="1.6,95.2 1.843585,96.42459 2.537258,97.46275 3.575414,98.15642 4.8,98.4"/>
</edge>
<edge id=":gneJ1_7" function="internal">
	<lane id=":gneJ1_7_0" index="0" speed="13.89" length="9.599991" shape="1.6,95.2 1.6,97.60001 1.6,100 1.6,102.4 1.6,104.8"/>
</edge>
<edge id=":gneJ1_8" function="internal">
	<lane id=":gneJ1_8_0" index="0" speed="13.89" length="4.898347" shape="1.6,95.2 1.131371,96.33138 -6.993822E-08,96.8 -1.131371,96.33138 -1.6,95.2"/>
</edge>
<edge id=":gneJ2_0" function="internal">
	<lane id=":gneJ2_0_0" index="0" speed="13.89" length="9.599976" shape="-1.6,204.8 -1.6,202.4 -1.6,200 -1.6,197.6 -1.6,195.2"/>
</edge>
<edge id=":gneJ2_1" function="internal">
	<lane id=":gneJ2_1_0" index="0" speed="13.89" length="9.988623" shape="-1.6,204.8 -1.112829,202.3508 0.2745171,200.2745 2.350827,198.8872 4.800001,198.4"/>
</edge>
<edge id=":gneJ2_2" function="internal">
	<lane id=":gneJ2_2_0" index="0" speed="13.89" length="4.898361" shape="-1.6,204.8 -1.131371,203.6686 6.993822E-08,203.2 1.131371,203.6686 1.6,204.8"/>
</edge>
<edge id=":gneJ2_3" function="internal">
	<lane id=":gneJ2_3_0" index="0" speed="13.89" length="4.994288" shape="4.8,201.6 3.575418,201.8436 2.537266,202.5373 1.843593,203.5754 1.600003,204.8"/>
</edge>
<edge id=":gneJ2_4" function="internal">
	<lane id=":gneJ2_4_0" index="0" speed="13.89" length="9.988617" shape="4.8,201.6 2.350828,201.1128 0.2745214,199.7255 -1.112823,197.6492 -1.599994,195.2"/>
</edge>
<edge id=":gneJ2_5" function="internal">
	<lane id=":gneJ2_5_0" index="0" speed="13.89" length="4.89837" shape="4.8,201.6 3.668625,201.1314 3.199994,200 3.668625,198.8686 4.8,198.4"/>
</edge>
<edge id=":gneJ2_6" function="internal">
	<lane id=":gneJ2_6_0" index="0" speed="13.89" length="4.994304" shape="1.6,195.2 1.843586,196.4246 2.537259,197.4628 3.575414,198.1564 4.8,198.4"/>
</edge>
<edge id=":gneJ2_7" function="internal">
	<lane id=":gneJ2_7_0" index="0" speed="13.89" length="9.599976" shape="1.6,195.2 1.6,197.6 1.6,200 1.6,202.4 1.6,204.8"/>
</edge>
<edge id=":gneJ2_8" function="internal">
	<lane id=":gneJ2_8_0" index="0" speed="13.89" length="4.898361" shape="1.6,195.2 1.131371,196.3314 -6.993822E-08,196.8 -1.131371,196.3314 -1.6,195.2"/>
</edge>
<edge id=":gneJ3_0" function="internal">
	<lane id=":gneJ3_0_0" index="0" speed="13.89" length="9.600037" shape="-1.6,304.8 -1.6,302.4 -1.6,300 -1.6,297.6 -1.6,295.2"/>
</edge>
<edge id=":gneJ3_1" function="internal">
	<lane id=":gneJ3_1_0" index="0" speed="13.89" length="9.988638" shape="-1.6,304.8 -1.112829,302.3508 0.2745156,300.2745 2.350825,298.8872 4.800001,298.4"/>
</edge>
<edge id=":gneJ3_2" function="internal">
	<lane id=":gneJ3_2_0" index="0" speed="13.89" length="4.898361" shape="-1.6,304.8 -1.131371,303.6686 6.993822E-08,303.2 1.131371,303.6686 1.6,304.8"/>
</edge>
<edge id=":gneJ3_3" function="internal">
	<lane id=":gneJ3_3_0" index="0" speed="13.89" length="4.994329" shape="4.8,301.6 3.575408,301.8436 2.53725,302.5373 1.843575,303.5754 1.599988,304.8"/>
</edge>
<edge id=":gneJ3_4" function="internal">
	<lane id=":gneJ3_4_0" index="0" speed="13.89" length="9.988647" shape="4.8,301.6 2.350821,301.1128 0.2745099,299.7255 -1.112832,297.6492 -1.599994,295.2"/>
</edge>
<edge id=":gneJ3_5" function="internal">
	<lane id=":gneJ3_5_0" index="0" speed="13.89" length="4.89837" shape="4.8,301.6 3.668625,301.1314 3.199994,300 3.668625,298.8686 4.8,298.4"/>
</edge>
<edge id=":gneJ3_6" function="internal">
	<lane id=":gneJ3_6_0" index="0" speed="13.89" length="4.99432" shape="1.6,295.2 1.843585,296.4246 2.537258,297.4627 3.575412,298.1564 4.8,298.4"/>
</edge>
<edge id=":gneJ3_7" function="internal">
	<lane id=":gneJ3_7_0" index="0" speed="13.89" length="9.600037" shape="1.6,295.2 1.6,297.6 1.6,300 1.6,302.4 1.6,304.8"/>
</edge>
<edge id=":gneJ3_8" function="internal">
	<lane id=":gneJ3_8_0" index="0" speed="13.89" length="4.898361" shape="1.6,295.2 1.131371,296.3314 -6.993822E-08,296.8 -1.131371,296.3314 -1.6,295.2"/>
</edge>
<edge id=":gneJ4_0" function="internal">
	<lane id=":gneJ4_0_0" index="0" speed="13.89" length="9.600037" shape="-1.6,404.8 -1.6,402.4 -1.6,400 -1.6,397.6 -1.6,395.2"/>
</edge>
<edge id=":gneJ4_1" function="internal">
	<lane id=":gneJ4_1_0" index="0" speed="13.89" length="9.988638" shape="-1.6,404.8 -1.112829,402.3508 0.2745156,400.2745 2.350825,398.8872 4.800001,398.4"/>
</edge>
<edge id=":gneJ4_2" function="internal">
	<lane id=":gneJ4_2_0" index="0" speed="13.89" length="4.898361" shape="-1.6,404.8 -1.131371,403.6686 6.993822E-08,403.2 1.131371,403.6686 1.6,404.8"/>
</edge>
<edge id=":gneJ4_3" function="internal">
	<lane id=":gneJ4_3_0" index="0" speed="13.89" length="4.994329" shape="4.8,401.6 3.575408,401.8436 2.53725,402.5373 1.843575,403.5754 1.599988,404.8"/>
</edge>
<edge id=":gneJ4_4" function="internal">
	<lane id=":gneJ4_4_0" index="0" speed="13.89" length="9.988647" shape="4.8,401.6 2.350821,401.1128 0.2745099,399.7255 -1.112832,397.6492 -1.599994,395.2"/>
</edge>
<edge id=":gneJ4_5" function="internal">
	<lane id=":gneJ4_5_0" index="0" speed="13.89" length="4.89837" shape="4.8,401.6 3.668625,401.1314 3.199994,400 3.668625,398.8686 4.8,398.4"/>
</edge>
<edge id=":gneJ4_6" function="internal">
	<lane id=":gneJ4_6_0" index="0" speed="13.89" length="4.99432" shape="1.6,395.2 1.843585,396.4246 2.537258,397.4627 3.575412,398.1564 4.8,398.4"/>
</edge>
<edge id=":gneJ4_7" function="internal">
	<lane id=":gneJ4_7_0" index="0" speed="13.89" length="9.600037" shape="1.6,395.2 1.6,397.6 1.6,400 1.6,402.4 1.6,404.8"/>
</edge>
<edge id=":gneJ4_8" function="internal">
	<lane id=":gneJ4_8_0" index="0" speed="13.89" length="4.898361" shape="1.6,395.2 1.131371,396.3314 -6.993822E-08,396.8 -1.131371,396.3314 -1.6,395.2"/>
</edge>
<edge id=":gneJ5_0" function="internal">
	<lane id=":gneJ5_0_0" index="0" speed="13.89" length="9.988647" shape="4.8,501.6 2.350821,501.1128 0.2745099,499.7255 -1.112832,497.6492 -1.599994,495.2"/>
</edge>
<edge id=":gneJ5_1" function="internal">
	<lane id=":gneJ5_1_0" index="0" speed="13.89" length="4.89837" shape="4.8,501.6 3.668625,501.1314 3.199994,500 3.668625,498.8686 4.8,498.4"/>
</edge>
<edge id=":gneJ5_2" function="internal">
	<lane id=":gneJ5_2_0" index="0" speed="13.89" length="4.99432" shape="1.6,495.2 1.843585,496.4246 2.537258,497.4627 3.575412,498.1564 4.8,498.4"/>
</edge>
<edge id=":gneJ5_3" function="internal">
	<lane id=":gneJ5_3_0" index="0" speed="13.89" length="4.898361" shape="1.6,495.2 1.131371,496.3314 -6.993822E-08,496.8 -1.131371,496.3314 -1.6,495.2"/>
</edge>
<edge id=":gneJ6_0" function="internal">
	<lane id=":gneJ6_0_0" index="0" speed="13.89" length="4.994308" shape="98.4,4.8 98.15642,3.575414 97.46275,2.537261 96.42459,1.843589 95.2,1.600003"/>
</edge>
<edge id=":gneJ6_1" function="internal">
	<lane id=":gneJ6_1_0" index="0" speed="13.89" length="9.988622" shape="98.4,4.8 98.88717,2.350827 100.2745,0.274518 102.3508,-1.112829 104.8,-1.600001"/>
</edge>
<edge id=":gneJ6_2" function="internal">
	<lane id=":gneJ6_2_0" index="0" speed="13.89" length="4.898344" shape="98.4,4.8 98.86863,3.668631 100,3.200002 101.1314,3.668631 101.6,4.8"/>
</edge>
<edge id=":gneJ6_3" function="internal">
	<lane id=":gneJ6_3_0" index="0" speed="13.89" length="4.994311" shape="104.8,1.6 103.5754,1.843585 102.5373,2.537258 101.8436,3.575414 101.6,4.8"/>
</edge>
<edge id=":gneJ6_4" function="internal">
	<lane id=":gneJ6_4_0" index="0" speed="13.89" length="9.599991" shape="104.8,1.6 102.4,1.6 100,1.6 97.60001,1.6 95.2,1.6"/>
</edge>
<edge id=":gneJ6_5" function="internal">
	<lane id=":gneJ6_5_0" index="0" speed="13.89" length="4.898347" shape="104.8,1.6 103.6686,1.131371 103.2,-6.993822E-08 103.6686,-1.131371 104.8,-1.6"/>
</edge>
<edge id=":gneJ6_6" function="internal">
	<lane id=":gneJ6_6_0" index="0" speed="13.89" length="9.599991" shape="95.2,-1.6 97.60001,-1.6 100,-1.6 102.4,-1.6 104.8,-1.6"/>
</edge>
<edge id=":gneJ6_7" function="internal">
	<lane id=":gneJ6_7_0" index="0" speed="13.89" length="9.988623" shape="95.2,-1.6 97.64918,-1.112829 99.72549,0.2745171 101.1128,2.350827 101.6,4.800001"/>
</edge>
<edge id=":gneJ6_8" function="internal">
	<lane id=":gneJ6_8_0" index="0" speed="13.89" length="4.898347" shape="95.2,-1.6 96.33138,-1.131371 96.8,6.993822E-08 96.33138,1.131371 95.2,1.6"/>
</edge>
<edge id=":gneJ7_0" function="internal">
	<lane id=":gneJ7_0_0" index="0" speed="13.89" length="4.994309" shape="98.4,104.8 98.15642,103.5754 97.46275,102.5373 96.42459,101.8436 95.2,101.6"/>
</edge>
<edge id=":gneJ7_1" function="internal">
	<lane id=":gneJ7_1_0" index="0" speed="13.89" length="9.599991" shape="98.4,104.8 98.4,102.4 98.4,100 98.4,97.60001 98.4,95.2"/>
</edge>
<edge id=":gneJ7_2" function="internal">
	<lane id=":gneJ7_2_0" index="0" speed="13.89" length="9.988619" shape="98.4,104.8 98.88717,102.3508 100.2745,100.2745 102.3508,98.88717 104.8,98.4"/>
</edge>
<edge id=":gneJ7_3" function="internal">
	<lane id=":gneJ7_3_0" index="0" speed="13.89" length="4.898345" shape="98.4,104.8 98.86863,103.6686 100,103.2 101.1314,103.6686 101.6,104.8"/>
</edge>
<edge id=":gneJ7_4" function="internal">
	<lane id=":gneJ7_4_0" index="0" speed="13.89" length="4.994309" shape="104.8,101.6 103.5754,101.8436 102.5373,102.5373 101.8436,103.5754 101.6,104.8"/>
</edge>
<edge id=":gneJ7_5" function="internal">
	<lane id=":gneJ7_5_0" index="0" speed="13.89" length="9.599991" shape="104.8,101.6 102.4,101.6 100,101.6 97.60001,101.6 95.2,101.6"/>
</edge>
<edge id=":gneJ7_6" function="internal">
	<lane id=":gneJ7_6_0" index="0" speed="13.89" length="9.988619" shape="104.8,101.6 102.3508,101.1128 100.2745,99.72549 98.88717,97.64918 98.4,95.2"/>
</edge>
<edge id=":gneJ7_7" function="internal">
	<lane id=":gneJ7_7_0" index="0" speed="13.89" length="4.898345" shape="104.8,101.6 103.6686,101.1314 103.2,100 103.6686,98.86863 104.8,98.4"/>
</edge>
<edge id=":gneJ7_8" function="internal">
	<lane id=":gneJ7_8_0" index="0" speed="13.89" length="4.994309" shape="101.6,95.2 101.8436,96.42459 102.5373,97.46275 103.5754,98.15642 104.8,98.4"/>
</edge>
<edge id=":gneJ7_9" function="internal">
	<lane id=":gneJ7_9_0" index="0" speed="13.89" length="9.599991" shape="101.6,95.2 101.6,97.60001 101.6,100 101.6,102.4 101.6,104.8"/>
</edge>
<edge id=":gneJ7_10" function="internal">
	<lane id=":gneJ7_10_0" index="0" speed="13.89" length="9.988619" shape="101.6,95.2 101.1128,97.64918 99.72549,99.72549 97.64918,101.1128 95.2,101.6"/>
</edge>
<edge id=":gneJ7_11" function="internal">
	<lane id=":gneJ7_11_0" index="0" speed="13.89" length="4.898345" shape="101.6,95.2 101.1314,96.33138 100,96.8 98.86863,96.33138 98.4,95.2"/>
</edge>
<edge id=":gneJ7_12" function="internal">
	<lane id=":gneJ7_12_0" index="0" speed="13.89" length="4.994309" shape="95.2,98.4 96.42459,98.15642 97.46275,97.46275 98.15642,96.42459 98.4,95.2"/>
</edge>
<edge id=":gneJ7_13" function="internal">
	<lane id=":gneJ7_13_0" index="0" speed="13.89" length="9.599991" shape="95.2,98.4 97.60001,98.4 100,98.4 102.4,98.4 104.8,98.4"/>
</edge>
<edge id=":gneJ7_14" function="internal">
	<lane id=":gneJ7_14_0" index="0" speed="13.89" length="9.988619" shape="95.2,98.4 97.64918,98.88717 99.72549,100.2745 101.1128,102.3508 101.6,104.8"/>
</edge>
<edge id=":gneJ7_15" function="internal">
	<lane id=":gneJ7_15_0" index="0" speed="13.89" length="4.898345" shape="95.2,98.4 96.33138,98.86863 96.8,100 96.33138,101.1314 95.2,101.6"/>
</edge>
<edge id=":gneJ8_0" function="internal">
	<lane id=":gneJ8_0_0" index="0" speed="13.89" length="4.994303" shape="98.4,204.8 98.15642,203.5754 97.46275,202.5372 96.42459,201.8436 95.2,201.6"/>
</edge>
<edge id=":gneJ8_1" function="internal">
	<lane id=":gneJ8_1_0" index="0" speed="13.89" length="9.599976" shape="98.4,204.8 98.4,202.4 98.4,200 98.4,197.6 98.4,195.2"/>
</edge>
<edge id=":gneJ8_2" function="internal">
	<lane id=":gneJ8_2_0" index="0" speed="13.89" length="9.988619" shape="98.4,204.8 98.88717,202.3508 100.2745,200.2745 102.3508,198.8872 104.8,198.4"/>
</edge>
<edge id=":gneJ8_3" function="internal">
	<lane id=":gneJ8_3_0" index="0" speed="13.89" length="4.898343" shape="98.4,204.8 98.86863,203.6686 100,203.2 101.1314,203.6686 101.6,204.8"/>
</edge>
<edge id=":gneJ8_4" function="internal">
	<lane id=":gneJ8_4_0" index="0" speed="13.89" length="4.994287" shape="104.8,201.6 103.5754,201.8436 102.5373,202.5373 101.8436,203.5754 101.6,204.8"/>
</edge>
<edge id=":gneJ8_5" function="internal">
	<lane id=":gneJ8_5_0" index="0" speed="13.89" length="9.599991" shape="104.8,201.6 102.4,201.6 100,201.6 97.60001,201.6 95.2,201.6"/>
</edge>
<edge id=":gneJ8_6" function="internal">
	<lane id=":gneJ8_6_0" index="0" speed="13.89" length="9.988619" shape="104.8,201.6 102.3508,201.1128 100.2745,199.7255 98.88717,197.6492 98.4,195.2"/>
</edge>
<edge id=":gneJ8_7" function="internal">
	<lane id=":gneJ8_7_0" index="0" speed="13.89" length="4.898373" shape="104.8,201.6 103.6686,201.1314 103.2,200 103.6686,198.8686 104.8,198.4"/>
</edge>
<edge id=":gneJ8_8" function="internal">
	<lane id=":gneJ8_8_0" index="0" speed="13.89" length="4.994303" shape="101.6,195.2 101.8436,196.4246 102.5373,197.4628 103.5754,198.1564 104.8,198.4"/>
</edge>
<edge id=":gneJ8_9" function="internal">
	<lane id=":gneJ8_9_0" index="0" speed="13.89" length="9.599976" shape="101.6,195.2 101.6,197.6 101.6,200 101.6,202.4 101.6,204.8"/>
</edge>
<edge id=":gneJ8_10" function="internal">
	<lane id=":gneJ8_10_0" index="0" speed="13.89" length="9.988619" shape="101.6,195.2 101.1128,197.6492 99.72549,199.7255 97.64918,201.1128 95.2,201.6"/>
</edge>
<edge id=":gneJ8_11" function="internal">
	<lane id=":gneJ8_11_0" index="0" speed="13.89" length="4.898343" shape="101.6,195.2 101.1314,196.3314 100,196.8 98.86863,196.3314 98.4,195.2"/>
</edge>
<edge id=":gneJ8_12" function="internal">
	<lane id=":gneJ8_12_0" index="0" speed="13.89" length="4.994287" shape="95.2,198.4 96.42458,198.1564 97.46274,197.4627 98.15641,196.4246 98.4,195.2"/>
</edge>
<edge id=":gneJ8_13" function="internal">
	<lane id=":gneJ8_13_0" index="0" speed="13.89" length="9.599991" shape="95.2,198.4 97.60001,198.4 100,198.4 102.4,198.4 104.8,198.4"/>
</edge>
<edge id=":gneJ8_14" function="internal">
	<lane id=":gneJ8_14_0" index="0" speed="13.89" length="9.988619" shape="95.2,198.4 97.64918,198.8872 99.72549,200.2745 101.1128,202.3508 101.6,204.8"/>
</edge>
<edge id=":gneJ8_15" function="internal">
	<lane id=":gneJ8_15_0" index="0" speed="13.89" length="4.898373" shape="95.2,198.4 96.33138,198.8686 96.80001,200 96.33138,201.1314 95.2,201.6"/>
</edge>
<edge id=":gneJ9_0" function="internal">
	<lane id=":gneJ9_0_0" index="0" speed="13.89" length="4.994318" shape="98.4,304.8 98.15642,303.5754 97.46275,302.5373 96.42459,301.8436 95.2,301.6"/>
</edge>
<edge id=":gneJ9_1" function="internal">
	<lane id=":gneJ9_1_0" index="0" speed="13.89" length="9.600037" shape="98.4,304.8 98.4,302.4 98.4,300 98.4,297.6 98.4,295.2"/>
</edge>
<edge id=":gneJ9_2" function="internal">
	<lane id=":gneJ9_2_0" index="0" speed="13.89" length="9.988633" shape="98.4,304.8 98.88717,302.3508 100.2745,300.2745 102.3508,298.8872 104.8,298.4"/>
</edge>
<edge id=":gneJ9_3" function="internal">
	<lane id=":gneJ9_3_0" index="0" speed="13.89" length="4.898359" shape="98.4,304.8 98.86863,303.6686 100,303.2 101.1314,303.6686 101.6,304.8"/>
</edge>
<edge id=":gneJ9_4" function="internal">
	<lane id=":gneJ9_4_0" index="0" speed="13.89" length="4.994313" shape="104.8,301.6 103.5754,301.8436 102.5373,302.5373 101.8436,303.5754 101.6,304.8"/>
</edge>
<edge id=":gneJ9_5" function="internal">
	<lane id=":gneJ9_5_0" index="0" speed="13.89" length="9.599991" shape="104.8,301.6 102.4,301.6 100,301.6 97.60001,301.6 95.2,301.6"/>
</edge>
<edge id=":gneJ9_6" function="internal">
	<lane id=":gneJ9_6_0" index="0" speed="13.89" length="9.988647" shape="104.8,301.6 102.3508,301.1128 100.2745,299.7255 98.88716,297.6492 98.4,295.2"/>
</edge>
<edge id=":gneJ9_7" function="internal">
	<lane id=":gneJ9_7_0" index="0" speed="13.89" length="4.898373" shape="104.8,301.6 103.6686,301.1314 103.2,300 103.6686,298.8686 104.8,298.4"/>
</edge>
<edge id=":gneJ9_8" function="internal">
	<lane id=":gneJ9_8_0" index="0" speed="13.89" length="4.994318" shape="101.6,295.2 101.8436,296.4246 102.5373,297.4627 103.5754,298.1564 104.8,298.4"/>
</edge>
<edge id=":gneJ9_9" function="internal">
	<lane id=":gneJ9_9_0" index="0" speed="13.89" length="9.600037" shape="101.6,295.2 101.6,297.6 101.6,300 101.6,302.4 101.6,304.8"/>
</edge>
<edge id=":gneJ9_10" function="internal">
	<lane id=":gneJ9_10_0" index="0" speed="13.89" length="9.988633" shape="101.6,295.2 101.1128,297.6492 99.72549,299.7255 97.64918,301.1128 95.2,301.6"/>
</edge>
<edge id=":gneJ9_11" function="internal">
	<lane id=":gneJ9_11_0" index="0" speed="13.89" length="4.898359" shape="101.6,295.2 101.1314,296.3314 100,296.8 98.86863,296.3314 98.4,295.2"/>
</edge>
<edge id=":gneJ9_12" function="internal">
	<lane id=":gneJ9_12_0" index="0" speed="13.89" length="4.994313" shape="95.2,298.4 96.42459,298.1564 97.46275,297.4627 98.15641,296.4246 98.39999,295.2"/>
</edge>
<edge id=":gneJ9_13" function="internal">
	<lane id=":gneJ9_13_0" index="0" speed="13.89" length="9.599991" shape="95.2,298.4 97.60001,298.4 100,298.4 102.4,298.4 104.8,298.4"/>
</edge>
<edge id=":gneJ9_14" function="internal">
	<lane id=":gneJ9_14_0" index="0" speed="13.89" length="9.988647" shape="95.2,298.4 97.64919,298.8872 99.72549,300.2745 101.1128,302.3508 101.6,304.8"/>
</edge>
<edge id=":gneJ9_15" function="internal">
	<lane id=":gneJ9_15_0" index="0" speed="13.89" length="4.898373" shape="95.2,298.4 96.33138,298.8686 96.80001,300 96.33138,301.1314 95.2,301.6"/>
</edge>
<edge id=":gneJ10_0" function="internal">
	<lane id=":gneJ10_0_0" index="0" speed="13.89" length="4.994318" shape="98.4,404.8 98.15642,403.5754 97.46275,402.5373 96.42459,401.8436 95.2,401.6"/>
</edge>
<edge id=":gneJ10_1" function="internal">
	<lane id=":gneJ10_1_0" index="0" speed="13.89" length="9.600037" shape="98.4,404.8 98.4,402.4 98.4,400 98.4,397.6 98.4,395.2"/>
</edge>
<edge id=":gneJ10_2" function="internal">
	<lane id=":gneJ10_2_0" index="0" speed="13.89" length="9.988633" shape="98.4,404.8 98.88717,402.3508 100.2745,400.2745 102.3508,398.8872 104.8,398.4"/>
</edge>
<edge id=":gneJ10_3" function="internal">
	<lane id=":gneJ10_3_0" index="0" speed="13.89" length="4.898359" shape="98.4,404.8 98.86863,403.6686 100,403.2 101.1314,403.6686 101.6,404.8"/>
</edge>
<edge id=":gneJ10_4" function="internal">
	<lane id=":gneJ10_4_0" index="0" speed="13.89" length="4.994313" shape="104.8,401.6 103.5754,401.8436 102.5373,402.5373 101.8436,403.5754 101.6,404.8"/>
</edge>
<edge id=":gneJ10_5" function="internal">
	<lane id=":gneJ10_5_0" index="0" speed="13.89" length="9.599991" shape="104.8,401.6 102.4,401.6 100,401.6 97.60001,401.6 95.2,401.6"/>
</edge>
<edge id=":gneJ10_6" function="internal">
	<lane id=":gneJ10_6_0" index="0" speed="13.89" length="9.988647" shape="104.8,401.6 102.3508,401.1128 100.2745,399.7255 98.88716,397.6492 98.4,395.2"/>
</edge>
<edge id=":gneJ10_7" function="internal">
	<lane id=":gneJ10_7_0" index="0" speed="13.89" length="4.898373" shape="104.8,401.6 103.6686,401.1314 103.2,400 103.6686,398.8686 104.8,398.4"/>
</edge>
<edge id=":gneJ10_8" function="internal">
	<lane id=":gneJ10_8_0" index="0" speed="13.89" length="4.994318" shape="101.6,395.2 101.8436,396.4246 102.5373,397.4627 103.5754,398.1564 104.8,398.4"/>
</edge>
<edge id=":gneJ10_9" function="internal">
	<lane id=":gneJ10_9_0" index="0" speed="13.89" length="9.600037" shape="101.6,395.2 101.6,397.6 101.6,400 101.6,402.4 101.6,404.8"/>
</edge>
<edge id=":gneJ10_10" function="internal">
	<lane id=":gneJ10_10_0" index="0" speed="13.89" length="9.988633" shape="101.6,395.2 101.1128,397.6492 99.72549,399.7255 97.64918,401.1128 95.2,401.6"/>
</edge>
<edge id=":gneJ10_11" function="internal">
	<lane id=":gneJ10_11_0" index="0" speed="13.89" length="4.898359" shape="101.6,395.2 101.1314,396.3314 100,396.8 98.86863,396.3314 98.4,395.2"/>
</edge>
<edge id=":gneJ10_12" function="internal">
	<lane id=":gneJ10_12_0" index="0" speed="13.89" length="4.994313" shape="95.2,398.4 96.42459,398.1564 97.46275,397.4627 98.15641,396.4246 98.39999,395.2"/>
</edge>
<edge id=":gneJ10_13" function="internal">
	<lane id=":gneJ10_13_0" index="0" speed="13.89" length="9.599991" shape="95.2,398.4 97.60001,398.4 100,398.4 102.4,398.4 104.8,398.4"/>
</edge>
<edge id=":gneJ10_14" function="internal">
	<lane id=":gneJ10_14_0" index="0" speed="13.89" length="9.988647" shape="95.2,398.4 97.64919,398.8872 99.72549,400.2745 101.1128,402.3508 101.6,404.8"/>
</edge>
<edge id=":gneJ10_15" function="internal">
	<lane id=":gneJ10_15_0" index="0" speed="13.89" length="4.898373" shape="95.2,398.4 96.33138,398.8686 96.80001,400 96.33138,401.1314 95.2,401.6"/>
</edge>
<edge id=":gneJ11_0" function="internal">
	<lane id=":gneJ11_0_0" index="0" speed="13.89" length="9.599991" shape="104.8,501.6 102.4,501.6 100,501.6 97.60001,501.6 95.2,501.6"/>
</edge>
<edge id=":gneJ11_1" function="internal">
	<lane id=":gneJ11_1_0" index="0" speed="13.89" length="9.988647" shape="104.8,501.6 102.3508,501.1128 100.2745,499.7255 98.88716,497.6492 98.4,495.2"/>
</edge>
<edge id=":gneJ11_2" function="internal">
	<lane id=":gneJ11_2_0" index="0" speed="13.89" length="4.898373" shape="104.8,501.6 103.6686,501.1314 103.2,500 103.6686,498.8686 104.8,498.4"/>
</edge>
<edge id=":gneJ11_3" function="internal">
	<lane id=":gneJ11_3_0" index="0" speed="13.89" length="4.994318" shape="101.6,495.2 101.8436,496.4246 102.5373,497.4627 103.5754,498.1564 104.8,498.4"/>
</edge>
<edge id=":gneJ11_4" function="internal">
	<lane id=":gneJ11_4_0" index="0" speed="13.89" length="9.988633" shape="101.6,495.2 101.1128,497.6492 99.72549,499.7255 97.64918,501.1128 95.2,501.6"/>
</edge>
<edge id=":gneJ11_5" function="internal">
	<lane id=":gneJ11_5_0" index="0" speed="13.89" length="4.898359" shape="101.6,495.2 101.1314,496.3314 100,496.8 98.86863,496.3314 98.4,495.2"/>
</edge>
<edge id=":gneJ11_6" function="internal">
	<lane id=":gneJ11_6_0" index="0" speed="13.89" length="4.994313" shape="95.2,498.4 96.42459,498.1564 97.46275,497.4627 98.15641,496.4246 98.39999,495.2"/>
</edge>
<edge id=":gneJ11_7" function="internal">
	<lane id=":gneJ11_7_0" index="0" speed="13.89" length="9.599991" shape="95.2,498.4 97.60001,498.4 100,498.4 102.4,498.4 104.8,498.4"/>
</edge>
<edge id=":gneJ11_8" function="internal">
	<lane id=":gneJ11_8_0" index="0" speed="13.89" length="4.898373" shape="95.2,498.4 96.33138,498.8686 96.80001,500 96.33138,501.1314 95.2,501.6"/>
</edge>
<edge id=":gneJ12_0" function="internal">
	<lane id=":gneJ12_0_0" index="0" speed="13.89" length="4.994288" shape="198.4,4.8 198.1564,3.575418 197.4627,2.537266 196.4246,1.843593 195.2,1.600003"/>
</edge>
<edge id=":gneJ12_1" function="internal">
	<lane id=":gneJ12_1_0" index="0" speed="13.89" length="9.988617" shape="198.4,4.8 198.8872,2.350828 200.2745,0.2745214 202.3508,-1.112823 204.8,-1.599994"/>
</edge>
<edge id=":gneJ12_2" function="internal">
	<lane id=":gneJ12_2_0" index="0" speed="13.89" length="4.89837" shape="198.4,4.8 198.8686,3.668625 200,3.199994 201.1314,3.668625 201.6,4.8"/>
</edge>
<edge id=":gneJ12_3" function="internal">
	<lane id=":gneJ12_3_0" index="0" speed="13.89" length="4.994304" shape="204.8,1.6 203.5754,1.843586 202.5372,2.537259 201.8436,3.575414 201.6,4.8"/>
</edge>
<edge id=":gneJ12_4" function="internal">
	<lane id=":gneJ12_4_0" index="0" speed="13.89" length="9.599976" shape="204.8,1.6 202.4,1.6 200,1.6 197.6,1.6 195.2,1.6"/>
</edge>
<edge id=":gneJ12_5" function="internal">
	<lane id=":gneJ12_5_0" index="0" speed="13.89" length="4.898361" shape="204.8,1.6 203.6686,1.131371 203.2,-6.993822E-08 203.6686,-1.131371 204.8,-1.6"/>
</edge>
<edge id=":gneJ12_6" function="internal">
	<lane id=":gneJ12_6_0" index="0" speed="13.89" length="9.599976" shape="195.2,-1.6 197.6,-1.6 200,-1.6 202.4,-1.6 204.8,-1.6"/>
</edge>
<edge id=":gneJ12_7" function="internal">
	<lane id=":gneJ12_7_0" index="0" speed="13.89" length="9.988623" shape="195.2,-1.6 197.6492,-1.112829 199.7255,0.2745171 201.1128,2.350827 201.6,4.800001"/>
</edge>
<edge id=":gneJ12_8" function="internal">
	<lane id=":gneJ12_8_0" index="0" speed="13.89" length="4.898361" shape="195.2,-1.6 196.3314,-1.131371 196.8,6.993822E-08 196.3314,1.131371 195.2,1.6"/>
</edge>
<edge id=":gneJ13_0" function="internal">
	<lane id=":gneJ13_0_0" index="0" speed="13.89" length="4.994287" shape="198.4,104.8 198.1564,103.5754 197.4627,102.5373 196.4246,101.8436 195.2,101.6"/>
</edge>
<edge id=":gneJ13_1" function="internal">
	<lane id=":gneJ13_1_0" index="0" speed="13.89" length="9.599991" shape="198.4,104.8 198.4,102.4 198.4,100 198.4,97.60001 198.4,95.2"/>
</edge>
<edge id=":gneJ13_2" function="internal">
	<lane id=":gneJ13_2_0" index="0" speed="13.89" length="9.988619" shape="198.4,104.8 198.8872,102.3508 200.2745,100.2745 202.3508,98.88717 204.8,98.4"/>
</edge>
<edge id=":gneJ13_3" function="internal">
	<lane id=":gneJ13_3_0" index="0" speed="13.89" length="4.898373" shape="198.4,104.8 198.8686,103.6686 200,103.2 201.1314,103.6686 201.6,104.8"/>
</edge>
<edge id=":gneJ13_4" function="internal">
	<lane id=":gneJ13_4_0" index="0" speed="13.89" length="4.994303" shape="204.8,101.6 203.5754,101.8436 202.5372,102.5373 201.8436,103.5754 201.6,104.8"/>
</edge>
<edge id=":gneJ13_5" function="internal">
	<lane id=":gneJ13_5_0" index="0" speed="13.89" length="9.599976" shape="204.8,101.6 202.4,101.6 200,101.6 197.6,101.6 195.2,101.6"/>
</edge>
<edge id=":gneJ13_6" function="internal">
	<lane id=":gneJ13_6_0" index="0" speed="13.89" length="9.988619" shape="204.8,101.6 202.3508,101.1128 200.2745,99.72549 198.8872,97.64918 198.4,95.2"/>
</edge>
<edge id=":gneJ13_7" function="internal">
	<lane id=":gneJ13_7_0" index="0" speed="13.89" length="4.898343" shape="204.8,101.6 203.6686,101.1314 203.2,100 203.6686,98.86863 204.8,98.4"/>
</edge>
<edge id=":gneJ13_8" function="internal">
	<lane id=":gneJ13_8_0" index="0" speed="13.89" length="4.994287" shape="201.6,95.2 201.8436,96.42458 202.5373,97.46274 203.5754,98.15641 204.8,98.4"/>
</edge>
<edge id=":gneJ13_9" function="internal">
	<lane id=":gneJ13_9_0" index="0" speed="13.89" length="9.599991" shape="201.6,95.2 201.6,97.60001 201.6,100 201.6,102.4 201.6,104.8"/>
</edge>
<edge id=":gneJ13_10" function="internal">
	<lane id=":gneJ13_10_0" index="0" speed="13.89" length="9.988619" shape="201.6,95.2 201.1128,97.64918 199.7255,99.72549 197.6492,101.1128 195.2,101.6"/>
</edge>
<edge id=":gneJ13_11" function="internal">
	<lane id=":gneJ13_11_0" index="0" speed="13.89" length="4.898373" shape="201.6,95.2 201.1314,96.33138 200,96.80001 198.8686,96.33138 198.4,95.2"/>
</edge>
<edge id=":gneJ13_12" function="internal">
	<lane id=":gneJ13_12_0" index="0" speed="13.89" length="4.994303" shape="195.2,98.4 196.4246,98.15642 197.4628,97.46275 198.1564,96.42459 198.4,95.2"/>
</edge>
<edge id=":gneJ13_13" function="internal">
	<lane id=":gneJ13_13_0" index="0" speed="13.89" length="9.599976" shape="195.2,98.4 197.6,98.4 200,98.4 202.4,98.4 204.8,98.4"/>
</edge>
<edge id=":gneJ13_14" function="internal">
	<lane id=":gneJ13_14_0" index="0" speed="13.89" length="9.988619" shape="195.2,98.4 197.6492,98.88717 199.7255,100.2745 201.1128,102.3508 201.6,104.8"/>
</edge>
<edge id=":gneJ13_15" function="internal">