<additional>
<poly id="638.5464" type="building" color="255,230,230" fill="1" lineWidth="1" layer="-1" shape="56.34729,30.2198 56.34729,3.546415 19.29594,3.546415 19.29594,30.2198"/>
<poly id="-444.3014" type="building" color="255,230,230" fill="1" lineWidth="1" layer="-1" shape="30.10553,-25.64137 30.10553,-48.06185 -5.992527,-48.06185 -5.992527,-25.64137"/>
<poly id="-881.8632" type="building" color="255,230,230" fill="1" lineWidth="1" layer="-1" shape="64.00108,-11.42629 64.00108,-25.12362 32.50949,-25.12362 32.50949,-11.42629"/>
<poly id="1446.357" type="building" color="255,230,230" fill="1" lineWidth="1" layer="-1" shape="52.59313,42.1218 52.59313,22.22683 37.3144,22.22683 37.3144,42.1218"/>
<poly id="-1413.682" type="building" color="255,230,230" fill="1" lineWidth="1" layer="-1" shape="-10.64266,60.36941 -10.64266,37.6054 -47.07347,37.6054 -47.07347,60.36941"/>
<poly id="-722.3467" type="building" color="255,230,230" fill="1" lineWidth="1" layer="-1" shape="-20.56426,40.06176 -20.56426,0.8323708 -50.09104,0.8323708 -50.09104,40.06176"/>
<poly id="200.6239" type="building" color="255,230,230" fill="1" lineWidth="1" layer="-1" shape="-30.68793,14.04582 -30.68793,-22.1916 -67.82889,-22.1916 -67.82889,14.04582"/>
<poly id="-581.4893" type="building" color="255,230,230" fill="1" lineWidth="1" layer="-1" shape="-21.22519,23.79559 -21.22519,13.00332 -41.98206,13.00332 -41.98206,23.79559"/>
<poly id="-2075.979" type="building" color="255,230,230" fill="1" lineWidth="1" layer="-1" shape="-38.77951,60.30719 -38.77951,30.69792 -52.46716,30.69792 -52.46716,60.30719"/>
<poly id="327.0358" type="building" color="255,230,230" fill="1" lineWidth="1" layer="-1" shape="-25.6791,4.654793 -25.6791,-24.52757 -40.1468,-24.52757 -40.1468,4.654793"/>
<poly id="2791.761" type="building" color="255,230,230" fill="1" lineWidth="1" layer="-1" shape="143.6411,28.92933 143.6411,15.309 108.7881,15.309 108.7881,28.92933"/>
<poly id="2921.084" type="building" color="255,230,230" fill="1" lineWidth="1" layer="-1" shape="95.42541,45.10121 95.42541,19.91251 84.29568,19.91251 84.29568,45.10121"/>
<poly id="-5017.851" type="building" color="255,230,230" fill="1" lineWidth="1" layer="-1" shape="161.5882,-27.93784 161.5882,-40.01222 133.7965,-40.01222 133.7965,-27.93784"/>
<poly id="4726.946" type="building" color="255,230,230" fill="1" lineWidth="1" layer="-1" shape="134.9807,54.01897 134.9807,22.34948 112.6057,22.34948 112.6057,54.01897"/>
<poly id="-5207.097" type="building" color="255,230,230" fill="1" lineWidth="1" layer="-1" shape="113.2199,-35.93624 113.2199,-61.62974 100.2601,-61.62974 100.2601,-35.93624"/>
<poly id="-6077.904" type="building" color="255,230,230" fill="1" lineWidth="1" layer="-1" shape="151.3363,-33.21439 151.3363,-53.89883 127.7443,-53.89883 127.7443,-33.21439"/>
<poly id="-3470.618" type="building" color="255,230,230" fill="1" lineWidth="1" layer="-1" shape="106.326,-28.66091 106.326,-44.42866 83.61179,-44.42866 83.61179,-28.66091"/>
<poly id="-2984.321" type="building" color="255,230,230" fill="1" lineWidth="1" layer="-1" shape="113.7803,-12.98541 113.7803,-42.55637 101.1441,-42.55637 101.1441,-12.98541"/>
<poly id="4938.621" type="building" color="255,230,230" fill="1" lineWidth="1" layer="-1" shape="159.1459,41.52922 159.1459,27.34912 127.6567,27.34912 127.6567,41.52922"/>
<poly id="4294.795" type="building" color="255,230,230" fill="1" lineWidth="1" layer="-1" shape="177.4279,40.41274 177.4279,13.21866 142.8916,13.21866 142.8916,40.41274"/>
<poly id="-5046.428" type="building" color="255,230,230" fill="1" lineWidth="1" layer="-1" shape="255.4468,-15.07943 255.4468,-25.49084 242.1026,-25.49084 242.1026,-15.07943"/>
<poly id="2746.598" type="building" color="255,230,230" fill="1" lineWidth="1" layer="-1" shape="260.0425,17.76892 260.0425,4.286342 238.0877,4.286342 238.0877,17.76892"/>
<poly id="5510.125" type="building" color="255,230,230" fill="1" lineWidth="1" layer="-1" shape="180.2903,47.40972 180.2903,15.51613 169.9711,15.51613 169.9711,47.40972"/>
<poly id="2801.519" type="building" color="255,230,230" fill="1" lineWidth="1" layer="-1" shape="177.6097,28.81662 177.6097,4.451683 159.2297,4.451683 159.2297,28.81662"/>
<poly id="-6406.163" type="building" color="255,230,230" fill="1" lineWidth="1" layer="-1" shape="259.2962,-9.832697 259.2962,-42.59023 229.51,-42.59023 229.51,-9.832697"/>
<poly id="7767.725" type="building" color="255,230,230" fill="1" lineWidth="1" layer="-1" shape="175.4464,57.38381 175.4464,36.83956 154.3114,36.83956 154.3114,57.38381"/>
<poly id="-13568.35" type="building" color="255,230,230" fill="1" lineWidth="1" layer="-1" shape="344.659,-29.56492 344.659,-50.68681 331.6306,-50.68681 331.6306,-29.56492"/>
<poly id="15735.81" type="building" color="255,230,230" fill="1" lineWidth="1" layer="-1" shape="343.0658,57.74863 343.0658,36.42193 325.3302,36.42193 325.3302,57.74863"/>
<poly id="-15914.99" type="building" color="255,230,230" fill="1" lineWidth="1" layer="-1" shape="342.1424,-36.96131 342.1424,-59.76919 315.9745,-59.76919 315.9745,-36.96131"/>
<poly id="-11003.84" type="building" color="255,230,230" fill="1" lineWidth="1" layer="-1" shape="324.0715,-25.24907 324.0715,-44.43956 307.5287,-44.43956 307.5287,-25.24907"/>
<poly id="7407.24" type="building" color="255,230,230" fill="1" lineWidth="1" layer="-1" shape="341.0269,32.01548 341.0269,12.55857 323.6865,12.55857 323.6865,32.01548"/>
<poly id="-14718.79" type="building" color="255,230,230" fill="1" lineWidth="1" layer="-1" shape="338.0527,-30.97909 338.0527,-58.88786 317.0844,-58.88786 317.0844,-30.97909"/>
<poly id="-8127.339" type="building" color="255,230,230" fill="1" lineWidth="1" layer="-1" shape="358.0851,-11.45711 358.0851,-36.39854 321.236,-36.39854 321.236,-11.45711"/>
<poly id="11131.98" type="building" color="255,230,230" fill="1" lineWidth="1" layer="-1" shape="380.6308,48.4345 380.6308,13.06316 343.4278,13.06316 343.4278,48.4345"/>
<poly id="-16463.83" type="building" color="255,230,230" fill="1" lineWidth="1" layer="-1" shape="376.9467,-29.82806 376.9467,-60.73014 350.2686,-60.73014 350.2686,-29.82806"/>
<poly id="-10698.35" type="building" color="255,230,230" fill="1" lineWidth="1" layer="-1" shape="424.0246,-16.47383 424.0246,-36.19231 388.5164,-36.19231 388.5164,-16.47383"/>
<poly id="-8635.462" type="building" color="255,230,230" fill="1" lineWidth="1" layer="-1" shape="432.6244,-9.568226 432.6244,-30.82066 422.6071,-30.82066 422.6071,-9.568226"/>
<poly id="-10331.57" type="building" color="255,230,230" fill="1" lineWidth="1" layer="-1" shape="428.6841,-13.42218 428.6841,-35.52218 415.6678,-35.52218 415.6678,-13.42218"/>
<poly id="11392.06" type="building" color="255,230,230" fill="1" lineWidth="1" layer="-1" shape="376.7394,38.6775 376.7394,23.78059 352.8419,23.78059 352.8419,38.6775"/>
<poly id="-23621.51" type="building" color="255,230,230" fill="1" lineWidth="1" layer="-1" shape="517.7279,-29.50366 517.7279,-62.78397 506.0934,-62.78397 506.0934,-29.50366"/>
<poly id="-18792.28" type="building" color="255,230,230" fill="1" lineWidth="1" layer="-1" shape="558.3047,-18.61533 558.3047,-50.82771 524.1526,-50.82771 524.1526,-18.61533"/>
<poly id="22570.1" type="building" color="255,230,230" fill="1" lineWidth="1" layer="-1" shape="553.7512,61.05293 553.7512,23.03938 519.8359,23.03938 519.8359,61.05293"/>
<poly id="-20072.54" type="building" color="255,230,230" fill="1" lineWidth="1" layer="-1" shape="530.637,-31.46049 530.637,-45.03263 519.0021,-45.03263 519.0021,-31.46049"/>
<poly id="-21443.75" type="building" color="255,230,230" fill="1" lineWidth="1" layer="-1" shape="554.0699,-29.77231 554.0699,-48.59874 540.403,-48.59874 540.403,-29.77231"/>
<poly id="-6587.479" type="building" color="255,230,230" fill="1" lineWidth="1" layer="-1" shape="540.6295,-5.526067 540.6295,-19.62682 506.9607,-19.62682 506.9607,-5.526067"/>
<poly id="11183.09" type="building" color="255,230,230" fill="1" lineWidth="1" layer="-1" shape="549.246,33.98917 549.246,7.918562 518.1552,7.918562 518.1552,33.98917"/>
<poly id="7787.169" type="building" color="255,230,230" fill="1" lineWidth="1" layer="-1" shape="484.8914,28.62859 484.8914,4.840064 445.7907,4.840064 445.7907,28.62859"/>
<poly id="-2099.116" type="building" color="255,230,230" fill="1" lineWidth="1" layer="-1" shape="-17.63016,75.62174 -17.63016,42.71787 -53.32209,42.71787 -53.32209,75.62174"/>
<poly id="2699.975" type="building" color="255,230,230" fill="1" lineWidth="1" layer="-1" shape="25.74894,147.5539 25.74894,126.1862 13.70419,126.1862 13.70419,147.5539"/>
<poly id="-3054.334" type="building" color="255,230,230" fill="1" lineWidth="1" layer="-1" shape="-20.59742,87.21621 -20.59742,69.03852 -57.59116,69.03852 -57.59116,87.21621"/>
<poly id="-2542.128" type="building" color="255,230,230" fill="1" lineWidth="1" layer="-1" shape="-26.30733,94.54689 -26.30733,62.63506 -38.38528,62.63506 -38.38528,94.54689"/>
<poly id="4765.508" type="building" color="255,230,230" fill="1" lineWidth="1" layer="-1" shape="46.7111,147.9537 46.7111,122.02 23.89589,122.02 23.89589,147.9537"/>
<poly id="-5791.005" type="building" color="255,230,230" fill="1" lineWidth="1" layer="-1" shape="-35.2717,150.2639 -35.2717,123.5932 -49.31264,123.5932 -49.31264,150.2639"/>
<poly id="-1685.603" type="building" color="255,230,230" fill="1" lineWidth="1" layer="-1" shape="-6.0278,80.44587 -6.0278,51.24728 -45.1701,51.24728 -45.1701,80.44587"/>
<poly id="-5620.871" type="building" color="255,230,230" fill="1" lineWidth="1" layer="-1" shape="-34.29083,125.0723 -34.29083,114.2988 -59.63647,114.2988 -59.63647,125.0723"/>
<poly id="7606.327" type="building" color="255,230,230" fill="1" lineWidth="1" layer="-1" shape="138.7339,71.869 138.7339,43.63095 124.6888,43.63095 124.6888,71.869"/>
<poly id="9128.751" type="building" color="255,230,230" fill="1" lineWidth="1" layer="-1" shape="150.4841,81.88361 150.4841,49.13353 128.22,49.13353 128.22,81.88361"/>
<poly id="4007.157" type="building" color="255,230,230" fill="1" lineWidth="1" layer="-1" shape="76.92198,71.05548 76.92198,45.94764 60.07121,45.94764 60.07121,71.05548"/>
<poly id="3987.633" type="building" color="255,230,230" fill="1" lineWidth="1" layer="-1" shape="69.00002,85.11407 69.00002,55.24768 44.63871,55.24768 44.63871,85.11407"/>
<poly id="28394.25" type="building" color="255,230,230" fill="1" lineWidth="1" layer="-1" shape="232.3849,135.5253 232.3849,115.5272 220.0185,115.5272 220.0185,135.5253"/>
<poly id="11686.03" type="building" color="255,230,230" fill="1" lineWidth="1" layer="-1" shape="170.759,90.35098 170.759,57.99413 144.3449,57.99413 144.3449,90.35098"/>
<poly id="17234.65" type="building" color="255,230,230" fill="1" lineWidth="1" layer="-1" shape="262.2772,83.6226 262.2772,56.3772 230.1421,56.3772 230.1421,83.6226"/>
<poly id="13487.58" type="building" color="255,230,230" fill="1" lineWidth="1" layer="-1" shape="193.5557,85.60425 193.5557,68.58144 156.3491,68.58144 156.3491,85.60425"/>
<poly id="26491.85" type="building" color="255,230,230" fill="1" lineWidth="1" layer="-1" shape="358.6174,87.98891 358.6174,63.6708 340.1009,63.6708 340.1009,87.98891"/>
<poly id="15499.88" type="building" color="255,230,230" fill="1" lineWidth="1" layer="-1" shape="289.3799,75.4315 289.3799,36.88572 262.6238,36.88572 262.6238,75.4315"/>
<poly id="19325.15" type="building" color="255,230,230" fill="1" lineWidth="1" layer="-1" shape="358.7048,64.43841 358.7048,48.7868 324.0107,48.7868 324.0107,64.43841"/>
<poly id="16134.53" type="building" color="255,230,230" fill="1" lineWidth="1" layer="-1" shape="273.6024,79.79372 273.6024,43.42593 250.1625,43.42593 250.1625,79.79372"/>
<poly id="25776.76" type="building" color="255,230,230" fill="1" lineWidth="1" layer="-1" shape="427.9952,76.63198 427.9952,45.98249 412.909,45.98249 412.909,76.63198"/>
<poly id="59192.79" type="building" color="255,230,230" fill="1" lineWidth="1" layer="-1" shape="450.9148,143.2954 450.9148,127.8403 422.3422,127.8403 422.3422,143.2954"/>
<poly id="49053.34" type="building" color="255,230,230" fill="1" lineWidth="1" layer="-1" shape="371.5063,153.6273 371.5063,121.0904 342.73,121.0904 342.73,153.6273"/>
<poly id="28734.51" type="building" color="255,230,230" fill="1" lineWidth="1" layer="-1" shape="492.366,68.59135 492.366,51.2558 466.6724,51.2558 466.6724,68.59135"/>
<poly id="28414.76" type="building" color="255,230,230" fill="1" lineWidth="1" layer="-1" shape="533.7675,65.93876 533.7675,42.67313 512.7021,42.67313 512.7021,65.93876"/>
<poly id="35051.77" type="building" color="255,230,230" fill="1" lineWidth="1" layer="-1" shape="552.6358,84.58858 552.6358,46.19984 519.3787,46.19984 519.3787,84.58858"/>
<poly id="40864.43" type="building" color="255,230,230" fill="1" lineWidth="1" layer="-1" shape="549.4098,88.74957 549.4098,63.16043 526.6069,63.16043 526.6069,88.74957"/>
<poly id="28427.92" type="building" color="255,230,230" fill="1" lineWidth="1" layer="-1" shape="483.2993,74.22027 483.2993,47.29813 452.4576,47.29813 452.4576,74.22027"/>
<poly id="38867.97" type="building" color="255,230,230" fill="1" lineWidth="1" layer="-1" shape="557.8881,84.6365 557.8881,59.5433 520.4314,59.5433 520.4314,84.6365"/>
<poly id="-6255.397" type="building" color="255,230,230" fill="1" lineWidth="1" layer="-1" shape="-32.24253,167.7379 -32.24253,154.9345 -45.30233,154.9345 -45.30233,167.7379"/>
<poly id="-4199.231" type="building" color="255,230,230" fill="1" lineWidth="1" layer="-1" shape="-7.439449,171.8849 -7.439449,160.7451 -43.05787,160.7451 -43.05787,171.8849"/>
<poly id="8474.15" type="building" color="255,230,230" fill="1" lineWidth="1" layer="-1" shape="58.37827,188.442 58.37827,163.301 37.98925,163.301 37.98925,188.442"/>
<poly id="-7182.495" type="building" color="255,230,230" fill="1" lineWidth="1" layer="-1" shape="-32.68701,200.3029 -32.68701,167.2717 -45.47394,167.2717 -45.47394,200.3029"/>
<poly id="2852.188" type="building" color="255,230,230" fill="1" lineWidth="1" layer="-1" shape="23.30045,193.469 23.30045,160.5136 8.929236,160.5136 8.929236,193.469"/>
<poly id="5214.015" type="building" color="255,230,230" fill="1" lineWidth="1" layer="-1" shape="42.61082,192.7368 42.61082,167.2358 15.32708,167.2358 15.32708,192.7368"/>
<poly id="-6908.139" type="building" color="255,230,230" fill="1" lineWidth="1" layer="-1" shape="-25.00676,207.9491 -25.00676,173.5236 -47.42977,173.5236 -47.42977,207.9491"/>
<poly id="28197.93" type="building" color="255,230,230" fill="1" lineWidth="1" layer="-1" shape="139.7246,238.5765 139.7246,216.4342 108.1635,216.4342 108.1635,238.5765"/>
<poly id="28972.98" type="building" color="255,230,230" fill="1" lineWidth="1" layer="-1" shape="144.7855,247.7207 144.7855,214.9145 105.7183,214.9145 105.7183,247.7207"/>
<poly id="13187.64" type="building" color="255,230,230" fill="1" lineWidth="1" layer="-1" shape="92.22923,179.4357 92.22923,158.1268 64.03973,158.1268 64.03973,179.4357"/>
<poly id="23583.43" type="building" color="255,230,230" fill="1" lineWidth="1" layer="-1" shape="144.4383,177.8796 144.4383,166.6538 129.3631,166.6538 129.3631,177.8796"/>
<poly id="10077.78" type="building" color="255,230,230" fill="1" lineWidth="1" layer="-1" shape="80.05973,176.9156 80.05973,146.544 44.56516,146.544 44.56516,176.9156"/>
<poly id="17743.65" type="building" color="255,230,230" fill="1" lineWidth="1" layer="-1" shape="93.29885,226.7898 93.29885,205.3578 70.93812,205.3578 70.93812,226.7898"/>
<poly id="38922.85" type="building" color="255,230,230" fill="1" lineWidth="1" layer="-1" shape="163.903,262.8326 163.903,230.7054 151.5568,230.7054 151.5568,262.8326"/>
<poly id="30260.98" type="building" color="255,230,230" fill="1" lineWidth="1" layer="-1" shape="189.6757,189.4274 189.6757,156.32 160.4178,156.32 160.4178,189.4274"/>
<poly id="35943.33" type="building" color="255,230,230" fill="1" lineWidth="1" layer="-1" shape="229.592,174.9366 229.592,152.9666 208.8708,152.9666 208.8708,174.9366"/>
<poly id="37496.09" type="building" color="255,230,230" fill="1" lineWidth="1" layer="-1" shape="240.9492,184.8139 240.9492,148.1551 209.4963,148.1551 209.4963,184.8139"/>
<poly id="31208.06" type="building" color="255,230,230" fill="1" lineWidth="1" layer="-1" shape="185.7952,188.8032 185.7952,156.9879 175.2097,156.9879 175.2097,188.8032"/>
<poly id="63295.83" type="building" color="255,230,230" fill="1" lineWidth="1" layer="-1" shape="277.787,250.0407 277.787,221.8449 258.7484,221.8449 258.7484,250.0407"/>
<poly id="74219.02" type="building" color="255,230,230" fill="1" lineWidth="1" layer="-1" shape="360.3615,229.3329 360.3615,204.6873 323.6529,204.6873 323.6529,229.3329"/>
<poly id="58331.9" type="building" color="255,230,230" fill="1" lineWidth="1" layer="-1" shape="277.1719,226.8151 277.1719,205.185 262.9381,205.185 262.9381,226.8151"/>
<poly id="40783.7" type="building" color="255,230,230" fill="1" lineWidth="1" layer="-1" shape="272.0126,167.4314 272.0126,146.1679 248.1888,146.1679 248.1888,167.4314"/>
<poly id="63164.24" type="building" color="255,230,230" fill="1" lineWidth="1" layer="-1" shape="348.5776,195.674 348.5776,173.7999 335.2515,173.7999 335.2515,195.674"/>
<poly id="43264.32" type="building" color="255,230,230" fill="1" lineWidth="1" layer="-1" shape="272.7471,186.1307 272.7471,150.7817 240.9095,150.7817 240.9095,186.1307"/>
<poly id="82113.16" type="building" color="255,230,230" fill="1" lineWidth="1" layer="-1" shape="371.1269,243.5914 371.1269,210.2022 352.6662,210.2022 352.6662,243.5914"/>
<poly id="89197.43" type="building" color="255,230,230" fill="1" lineWidth="1" layer="-1" shape="390.3933,242.4538 390.3933,225.3101 372.3627,225.3101 372.3627,242.4538"/>
<poly id="72124.69" type="building" color="255,230,230" fill="1" lineWidth="1" layer="-1" shape="434.0619,178.9416 434.0619,161.7222 412.8104,161.7222 412.8104,178.9416"/>
<poly id="59755.8" type="building" color="255,230,230" fill="1" lineWidth="1" layer="-1" shape="363.1429,178.5412 363.1429,157.7271 347.6682,157.7271 347.6682,178.5412"/>
<poly id="134630.8" type="building" color="255,230,230" fill="1" lineWidth="1" layer="-1" shape="559.1011,256.2442 559.1011,239.1303 528.002,239.1303 528.002,256.2442"/>
<poly id="126268" type="building" color="255,230,230" fill="1" lineWidth="1" layer="-1" shape="528.1823,259.5234 528.1823,224.7183 514.8339,224.7183 514.8339,259.5234"/>
<poly id="84144.99" type="building" color="255,230,230" fill="1" lineWidth="1" layer="-1" shape="528.8821,178.0909 528.8821,144.1926 515.4779,144.1926 515.4779,178.0909"/>
<poly id="83706.07" type="building" color="255,230,230" fill="1" lineWidth="1" layer="-1" shape="471.3874,194.3274 471.3874,175.3053 434.4422,175.3053 434.4422,194.3274"/>
<poly id="89880.73" type="building" color="255,230,230" fill="1" lineWidth="1" layer="-1" shape="534.3604,180.6932 534.3604,160.1628 520.4045,160.1628 520.4045,180.6932"/>
<poly id="83904.21" type="building" color="255,230,230" fill="1" lineWidth="1" layer="-1" shape="551.1918,168.8954 551.1918,143.06 524.657,143.06 524.657,168.8954"/>
<poly id="80334.53" type="building" color="255,230,230" fill="1" lineWidth="1" layer="-1" shape="471.2006,186.0341 471.2006,164.2648 446.125,164.2648 446.125,186.0341"/>
<poly id="109908.1" type="building" color="255,230,230" fill="1" lineWidth="1" layer="-1" shape="482.3071,239.8383 482.3071,225.268 462.923,225.268 462.923,239.8383"/>
<poly id="10324.49" type="building" color="255,230,230" fill="1" lineWidth="1" layer="-1" shape="46.75837,346.0455 46.75837,311.504 16.04748,311.504 16.04748,346.0455"/>
<poly id="-8042.897" type="building" color="255,230,230" fill="1" lineWidth="1" layer="-1" shape="-12.55703,330.0934 -12.55703,305.9526 -38.02357,305.9526 -38.02357,330.0934"/>
<poly id="-5221.531" type="building" color="255,230,230" fill="1" lineWidth="1" layer="-1" shape="-4.094007,306.4119 -4.094007,274.0831 -31.88585,274.0831 -31.88585,306.4119"/>
<poly id="-9836.298" type="building" color="255,230,230" fill="1" lineWidth="1" layer="-1" shape="-26.37549,311.113 -26.37549,276.3239 -40.60225,276.3239 -40.60225,311.113"/>
<poly id="-10775.83" type="building" color="255,230,230" fill="1" lineWidth="1" layer="-1" shape="-19.59643,320.4896 -19.59643,306.5244 -49.14733,306.5244 -49.14733,320.4896"/>
<poly id="-12197.34" type="building" color="255,230,230" fill="1" lineWidth="1" layer="-1" shape="-22.57632,343.0561 -22.57632,318.338 -51.19115,318.338 -51.19115,343.0561"/>
<poly id="-9094.942" type="building" color="255,230,230" fill="1" lineWidth="1" layer="-1" shape="-16.79796,345.7875 -16.79796,317.3016 -38.06611,317.3016 -38.06611,345.7875"/>
<poly id="39255.93" type="building" color="255,230,230" fill="1" lineWidth="1" layer="-1" shape="127.5378,347.2583 127.5378,317.233 108.7688,317.233 108.7688,347.2583"/>
<poly id="20307.17" type="building" color="255,230,230" fill="1" lineWidth="1" layer="-1" shape="71.11945,342.2455 71.11945,305.7238 54.23937,305.7238 54.23937,342.2455"/>
<poly id="45257.3" type="building" color="255,230,230" fill="1" lineWidth="1" layer="-1" shape="150.3331,325.2253 150.3331,310.6207 134.3729,310.6207 134.3729,325.2253"/>
<poly id="38639.8" type="building" color="255,230,230" fill="1" lineWidth="1" layer="-1" shape="158.0468,272.8551 158.0468,243.2753 141.4109,243.2753 141.4109,272.8551"/>
<poly id="49926.06" type="building" color="255,230,230" fill="1" lineWidth="1" layer="-1" shape="158.1465,332.6969 158.1465,320.5837 147.5479,320.5837 147.5479,332.6969"/>
<poly id="62082.19" type="building" color="255,230,230" fill="1" lineWidth="1" layer="-1" shape="250.667,286.0476 250.667,251.6215 211.1947,251.6215 211.1947,286.0476"/>
<poly id="46585.77" type="building" color="255,230,230" fill="1" lineWidth="1" layer="-1" shape="179.7114,279.5496 179.7114,269.5222 159.667,269.5222 159.667,279.5496"/>
<poly id="91529.44" type="building" color="255,230,230" fill="1" lineWidth="1" layer="-1" shape="344.706,283.8619 344.706,261.2048 326.9875,261.2048 326.9875,283.8619"/>
<poly id="114054.2" type="building" color="255,230,230" fill="1" lineWidth="1" layer="-1" shape="348.1943,363.6615 348.1943,327.8805 311.515,327.8805 311.515,363.6615"/>
<poly id="114729.1" type="building" color="255,230,230" fill="1" lineWidth="1" layer="-1" shape="344.6776,364.7694 344.6776,328.1357 317.63,328.1357 317.63,364.7694"/>
<poly id="90569.62" type="building" color="255,230,230" fill="1" lineWidth="1" layer="-1" shape="278.0644,355.166 278.0644,317.3876 260.5967,317.3876 260.5967,355.166"/>
<poly id="88771.13" type="building" color="255,230,230" fill="1" lineWidth="1" layer="-1" shape="361.8948,275.086 361.8948,241.7057 325.1993,241.7057 325.1993,275.086"/>
<poly id="66133.17" type="building" color="255,230,230" fill="1" lineWidth="1" layer="-1" shape="267.4493,274.6128 267.4493,241.0391 245.557,241.0391 245.557,274.6128"/>
<poly id="99543.56" type="building" color="255,230,230" fill="1" lineWidth="1" layer="-1" shape="396.5369,281.7693 396.5369,246.0019 357.908,246.0019 357.908,281.7693"/>
<poly id="124144.9" type="building" color="255,230,230" fill="1" lineWidth="1" layer="-1" shape="372.7678,348.0101 372.7678,336.3893 352.8018,336.3893 352.8018,348.0101"/>
<poly id="115351.8" type="building" color="255,230,230" fill="1" lineWidth="1" layer="-1" shape="440.2305,275.4686 440.2305,264.7605 413.8649,264.7605 413.8649,275.4686"/>
<poly id="171333" type="building" color="255,230,230" fill="1" lineWidth="1" layer="-1" shape="561.1682,327.9995 561.1682,298.2108 533.2437,298.2108 533.2437,327.9995"/>
<poly id="157931" type="building" color="255,230,230" fill="1" lineWidth="1" layer="-1" shape="492.243,330.9483 492.243,317.5726 481.8565,317.5726 481.8565,330.9483"/>
<poly id="154843.6" type="building" color="255,230,230" fill="1" lineWidth="1" layer="-1" shape="469.8221,347.3139 469.8221,319.2117 459.4363,319.2117 459.4363,347.3139"/>
<poly id="139083.7" type="building" color="255,230,230" fill="1" lineWidth="1" layer="-1" shape="564.5721,270.7078 564.5721,236.1413 533.0616,236.1413 533.0616,270.7078"/>
<poly id="125226.6" type="building" color="255,230,230" fill="1" lineWidth="1" layer="-1" shape="474.3101,287.1149 474.3101,250.666 457.1223,250.666 457.1223,287.1149"/>
<poly id="-16924.66" type="building" color="255,230,230" fill="1" lineWidth="1" layer="-1" shape="-29.78146,455.4288 -29.78146,418.1273 -47.71629,418.1273 -47.71629,455.4288"/>
<poly id="8484.067" type="building" color="255,230,230" fill="1" lineWidth="1" layer="-1" shape="27.91425,462.8329 27.91425,432.1284 10.00501,432.1284 10.00501,462.8329"/>
<poly id="-10670.19" type="building" color="255,230,230" fill="1" lineWidth="1" layer="-1" shape="-14.34818,432.3652 -14.34818,397.9168 -37.05696,397.9168 -37.05696,432.3652"/>
<poly id="-15739.53" type="building" color="255,230,230" fill="1" lineWidth="1" layer="-1" shape="-28.95246,359.3847 -28.95246,345.0492 -60.42162,345.0492 -60.42162,359.3847"/>
<poly id="-12200.43" type="building" color="255,230,230" fill="1" lineWidth="1" layer="-1" shape="-16.61028,409.7066 -16.61028,387.5125 -44.60468,387.5125 -44.60468,409.7066"/>
<poly id="44574.87" type="building" color="255,230,230" fill="1" lineWidth="1" layer="-1" shape="134.2983,386.4719 134.2983,357.7794 105.2707,357.7794 105.2707,386.4719"/>
<poly id="32160.61" type="building" color="255,230,230" fill="1" lineWidth="1" layer="-1" shape="91.94682,382.553 91.94682,372.4667 78.43607,372.4667 78.43607,382.553"/>
<poly id="19341.39" type="building" color="255,230,230" fill="1" lineWidth="1" layer="-1" shape="62.18485,370.4299 62.18485,358.7996 43.90734,358.7996 43.90734,370.4299"/>
<poly id="21407" type="building" color="255,230,230" fill="1" lineWidth="1" layer="-1" shape="78.72501,377.0783 78.72501,338.5868 40.92314,338.5868 40.92314,377.0783"/>
<poly id="52596.7" type="building" color="255,230,230" fill="1" lineWidth="1" layer="-1" shape="154.6422,373.5824 154.6422,361.8027 131.4485,361.8027 131.4485,373.5824"/>
<poly id="47985.7" type="building" color="255,230,230" fill="1" lineWidth="1" layer="-1" shape="152.6508,361.4045 152.6508,350.7645 116.8678,350.7645 116.8678,361.4045"/>
<poly id="72835.07" type="building" color="255,230,230" fill="1" lineWidth="1" layer="-1" shape="179.8499,453.6941 179.8499,426.7435 151.0541,426.7435 151.0541,453.6941"/>
<poly id="105001.8" type="building" color="255,230,230" fill="1" lineWidth="1" layer="-1" shape="254.3032,437.3119 254.3032,410.2295 241.2562,410.2295 241.2562,437.3119"/>
<poly id="76359.2" type="building" color="255,230,230" fill="1" lineWidth="1" layer="-1" shape="224.5179,370.5181 224.5179,332.8951 209.7031,332.8951 209.7031,370.5181"/>
<poly id="61916.68" type="building" color="255,230,230" fill="1" lineWidth="1" layer="-1" shape="190.0224,366.9659 190.0224,336.0901 162.2493,336.0901 162.2493,366.9659"/>
<poly id="95127.89" type="building" color="255,230,230" fill="1" lineWidth="1" layer="-1" shape="272.4785,374.3204 272.4785,343.5551 257.5738,343.5551 257.5738,374.3204"/>
<poly id="140984.8" type="building" color="255,230,230" fill="1" lineWidth="1" layer="-1" shape="342.951,452.7876 342.951,416.9889 305.4216,416.9889 305.4216,452.7876"/>
<poly id="161383.9" type="building" color="255,230,230" fill="1" lineWidth="1" layer="-1" shape="371.5675,450.8811 371.5675,432.9655 358.803,432.9655 358.803,450.8811"/>
<poly id="150133.5" type="building" color="255,230,230" fill="1" lineWidth="1" layer="-1" shape="439.3114,367.0885 439.3114,340.5593 409.3226,340.5593 409.3226,367.0885"/>
<poly id="125662.5" type="building" color="255,230,230" fill="1" lineWidth="1" layer="-1" shape="366.9666,367.9539 366.9666,333.9344 349.1729,333.9344 349.1729,367.9539"/>
<poly id="210528.3" type="building" color="255,230,230" fill="1" lineWidth="1" layer="-1" shape="545.5369,410.0328 545.5369,377.497 523.7728,377.497 523.7728,410.0328"/>
<poly id="241931.7" type="building" color="255,230,230" fill="1" lineWidth="1" layer="-1" shape="559.4068,452.6347 559.4068,440.4178 524.2101,440.4178 524.2101,452.6347"/>
<poly id="160233.2" type="building" color="255,230,230" fill="1" lineWidth="1" layer="-1" shape="465.3744,368.2528 465.3744,342.1159 436.8792,342.1159 436.8792,368.2528"/>
<poly id="213458.9" type="building" color="255,230,230" fill="1" lineWidth="1" layer="-1" shape="558.2998,406.6569 558.2998,384.7108 520.6368,384.7108 520.6368,406.6569"/>
<poly id="204658.1" type="building" color="255,230,230" fill="1" lineWidth="1" layer="-1" shape="476.9036,454.4937 476.9036,429.8406 448.8009,429.8406 448.8009,454.4937"/>
<poly id="179111.8" type="building" color="255,230,230" fill="1" lineWidth="1" layer="-1" shape="482.6852,391.9086 482.6852,378.5154 447.2536,378.5154 447.2536,391.9086"/>
<poly id="-19630.1" type="building" color="255,230,230" fill="1" lineWidth="1" layer="-1" shape="-17.77236,542.1102 -17.77236,516.8818 -56.37399,516.8818 -56.37399,542.1102"/>
<poly id="16512.77" type="building" color="255,230,230" fill="1" lineWidth="1" layer="-1" shape="41.1198,476.712 41.1198,451.2784 30.05668,451.2784 30.05668,476.712"/>
<poly id="-15257.18" type="building" color="255,230,230" fill="1" lineWidth="1" layer="-1" shape="-16.94237,480.4458 -16.94237,467.6798 -47.4254,467.6798 -47.4254,480.4458"/>
<poly id="-17342.46" type="building" color="255,230,230" fill="1" lineWidth="1" layer="-1" shape="-19.48407,557.533 -19.48407,531.1667 -44.23399,531.1667 -44.23399,557.533"/>
<poly id="51399.23" type="building" color="255,230,230" fill="1" lineWidth="1" layer="-1" shape="110.1048,548.4455 110.1048,523.4505 81.70197,523.4505 81.70197,548.4455"/>
<poly id="67903.2" type="building" color="255,230,230" fill="1" lineWidth="1" layer="-1" shape="163.9146,465.5813 163.9146,446.8185 133.776,446.8185 133.776,465.5813"/>
<poly id="25018.81" type="building" color="255,230,230" fill="1" lineWidth="1" layer="-1" shape="56.52806,496.4312 56.52806,476.2933 46.35332,476.2933 46.35332,496.4312"/>