<additional>
<poly id="-400.8512" type="building" color="255,230,230" fill="1" lineWidth="1" layer="-1" shape="27.81488,-2.063286 27.81488,-35.29063 15.1098,-35.29063 15.1098,-2.063286"/>
<poly id="-1926.937" type="building" color="255,230,230" fill="1" lineWidth="1" layer="-1" shape="54.25049,-22.19719 54.25049,-60.32335 39.15349,-60.32335 39.15349,-22.19719"/>
<poly id="-1313.453" type="building" color="255,230,230" fill="1" lineWidth="1" layer="-1" shape="65.73518,-9.649364 65.73518,-43.74335 32.66425,-43.74335 32.66425,-9.649364"/>
<poly id="168.1607" type="building" color="255,230,230" fill="1" lineWidth="1" layer="-1" shape="30.8343,18.3921 30.8343,2.534487 1.308689,2.534487 1.308689,18.3921"/>
<poly id="984.8074" type="building" color="255,230,230" fill="1" lineWidth="1" layer="-1" shape="137.2274,16.52032 137.2274,-1.468802 124.489,-1.468802 124.489,16.52032"/>
<poly id="5037.61" type="building" color="255,230,230" fill="1" lineWidth="1" layer="-1" shape="165.5188,46.04479 165.5188,21.44412 133.0553,21.44412 133.0553,46.04479"/>
<poly id="4148.157" type="building" color="255,230,230" fill="1" lineWidth="1" layer="-1" shape="96.21448,68.39041 96.21448,28.9429 74.25778,28.9429 74.25778,68.39041"/>
<poly id="-5102.267" type="building" color="255,230,230" fill="1" lineWidth="1" layer="-1" shape="148.5133,-29.60341 148.5133,-47.13995 117.4259,-47.13995 117.4259,-29.60341"/>
<poly id="-1418.738" type="building" color="255,230,230" fill="1" lineWidth="1" layer="-1" shape="97.06747,-4.130409 97.06747,-31.43009 62.51837,-31.43009 62.51837,-4.130409"/>
<poly id="5980.32" type="building" color="255,230,230" fill="1" lineWidth="1" layer="-1" shape="165.6998,46.91048 165.6998,29.52239 147.2713,29.52239 147.2713,46.91048"/>
<poly id="1455.378" type="building" color="255,230,230" fill="1" lineWidth="1" layer="-1" shape="174.7314,14.53658 174.7314,2.615312 164.6779,2.615312 164.6779,14.53658"/>
<poly id="-7453.97" type="building" color="255,230,230" fill="1" lineWidth="1" layer="-1" shape="227.4888,-28.1005 227.4888,-39.24588 215.2355,-39.24588 215.2355,-28.1005"/>
<poly id="-5078.348" type="building" color="255,230,230" fill="1" lineWidth="1" layer="-1" shape="-29.44927,129.1375 -29.44927,117.3287 -52.96931,117.3287 -52.96931,129.1375"/>
<poly id="-216.614" type="building" color="255,230,230" fill="1" lineWidth="1" layer="-1" shape="5.841855,83.43692 5.841855,51.47781 -12.2641,51.47781 -12.2641,83.43692"/>
<poly id="-5429.911" type="building" color="255,230,230" fill="1" lineWidth="1" layer="-1" shape="-29.26442,122.0085 -29.26442,107.2701 -65.46591,107.2701 -65.46591,122.0085"/>
<poly id="6165.741" type="building" color="255,230,230" fill="1" lineWidth="1" layer="-1" shape="57.06602,132.5461 57.06602,104.6784 46.89864,104.6784 46.89864,132.5461"/>
<poly id="32114.63" type="building" color="255,230,230" fill="1" lineWidth="1" layer="-1" shape="238.297,158.0572 238.297,120.7397 222.4632,120.7397 222.4632,158.0572"/>
<poly id="8325.124" type="building" color="255,230,230" fill="1" lineWidth="1" layer="-1" shape="180.0732,64.23122 180.0732,37.13106 148.4563,37.13106 148.4563,64.23122"/>
<poly id="2716.839" type="building" color="255,230,230" fill="1" lineWidth="1" layer="-1" shape="20.0989,233.6792 20.0989,211.8006 4.295812,211.8006 4.295812,233.6792"/>
<poly id="5461.744" type="building" color="255,230,230" fill="1" lineWidth="1" layer="-1" shape="41.79701,187.8646 41.79701,164.1491 20.26585,164.1491 20.26585,187.8646"/>
<poly id="-6930.544" type="building" color="255,230,230" fill="1" lineWidth="1" layer="-1" shape="-28.36453,164.82 -28.36453,146.5863 -60.65799,146.5863 -60.65799,164.82"/>
<poly id="-8061.488" type="building" color="255,230,230" fill="1" lineWidth="1" layer="-1" shape="-27.14888,181.1152 -27.14888,165.3436 -65.92409,165.3436 -65.92409,181.1152"/>
<poly id="-6681.171" type="building" color="255,230,230" fill="1" lineWidth="1" layer="-1" shape="-19.54386,181.513 -19.54386,166.4951 -57.24943,166.4951 -57.24943,181.513"/>
<poly id="14123.93" type="building" color="255,230,230" fill="1" lineWidth="1" layer="-1" shape="68.95927,238.5267 68.95927,206.3859 58.02234,206.3859 58.02234,238.5267"/>
<poly id="37381.77" type="building" color="255,230,230" fill="1" lineWidth="1" layer="-1" shape="203.6866,202.0787 203.6866,179.3974 188.2832,179.3974 188.2832,202.0787"/>
<poly id="35913.02" type="building" color="255,230,230" fill="1" lineWidth="1" layer="-1" shape="168.1908,251.983 168.1908,224.0649 133.5689,224.0649 133.5689,251.983"/>
<poly id="32694.79" type="building" color="255,230,230" fill="1" lineWidth="1" layer="-1" shape="227.7119,163.7388 227.7119,142.0048 200.0295,142.0048 200.0295,163.7388"/>
<poly id="45456.17" type="building" color="255,230,230" fill="1" lineWidth="1" layer="-1" shape="199.9282,255.2358 199.9282,216.4214 185.5736,216.4214 185.5736,255.2358"/>
<poly id="43867.7" type="building" color="255,230,230" fill="1" lineWidth="1" layer="-1" shape="201.301,245.763 201.301,223.6022 172.5461,223.6022 172.5461,245.763"/>
<poi id="-1031.64" type="tree" color="1,0,0" x="-25.74843" y="40.06613" angle="0" /><poi id="851.4628" type="tree" color="1,0,0" x="-32.73048" y="-26.01437" angle="0" /><poi id="8.265217" type="tree" color="1,0,0" x="-0.2458267" y="-33.62212" angle="0" /><poi id="112.7172" type="tree" color="1,0,0" x="49.12702" y="2.294403" angle="0" /><poi id="-500.2378" type="tree" color="1,0,0" x="50.9673" y="-9.814877" angle="0" /><poi id="781.6795" type="tree" color="1,0,0" x="120.4519" y="6.489555" angle="0" /><poi id="2913.21" type="tree" color="1,0,0" x="113.4043" y="25.68871" angle="0" /><poi id="-6701.673" type="tree" color="1,0,0" x="191.5688" y="-34.98311" angle="0" /><poi id="-8233.586" type="tree" color="1,0,0" x="204.2628" y="-40.30878" angle="0" /><poi id="5658.755" type="tree" color="1,0,0" x="223.0167" y="25.37368" angle="0" /><poi id="1586.193" type="tree" color="1,0,0" x="201.4203" y="7.875042" angle="0" /><poi id="2472.035" type="tree" color="1,0,0" x="237.7831" y="10.39618" angle="0" /><poi id="2377.291" type="tree" color="1,0,0" x="32.0119" y="74.26273" angle="0" /><poi id="3129.979" type="tree" color="1,0,0" x="24.69619" y="126.7393" angle="0" /><poi id="1496.951" type="tree" color="1,0,0" x="29.21698" y="51.23565" angle="0" /><poi id="3973.988" type="tree" color="1,0,0" x="47.01595" y="84.52425" angle="0" /><poi id="17630.12" type="tree" color="1,0,0" x="130.706" y="134.8839" angle="0" /><poi id="19469.46" type="tree" color="1,0,0" x="144.5982" y="134.6452" angle="0" /><poi id="4369.31" type="tree" color="1,0,0" x="79.57542" y="54.90778" angle="0" /><poi id="6277.452" type="tree" color="1,0,0" x="66.84749" y="93.90707" angle="0" /><poi id="14419.36" type="tree" color="1,0,0" x="110.6812" y="130.2783" angle="0" /><poi id="9773.703" type="tree" color="1,0,0" x="100.3638" y="97.38271" angle="0" /><poi id="25744.47" type="tree" color="1,0,0" x="190.5589" y="135.0999" angle="0" /><poi id="14130.45" type="tree" color="1,0,0" x="181.5914" y="77.81454" angle="0" /><poi id="20901.91" type="tree" color="1,0,0" x="170.4145" y="122.6534" angle="0" /><poi id="24070.76" type="tree" color="1,0,0" x="215.3497" y="111.7752" angle="0" /><poi id="-292.6427" type="tree" color="1,0,0" x="-1.312572" y="222.9536" angle="0" /><poi id="-759.6008" type="tree" color="1,0,0" x="-4.568569" y="166.2667" angle="0" /><poi id="27539.9" type="tree" color="1,0,0" x="131.2679" y="209.7992" angle="0" /><poi id="22067.97" type="tree" color="1,0,0" x="145.1703" y="152.0143" angle="0" /><poi id="26502.39" type="tree" color="1,0,0" x="135.3422" y="195.8176" angle="0" /><poi id="27729.36" type="tree" color="1,0,0" x="135.7695" y="204.2384" angle="0" /><poi id="11403.19" type="tree" color="1,0,0" x="63.40662" y="179.8422" angle="0" /><poi id="20364.55" type="tree" color="1,0,0" x="90.22441" y="225.71" angle="0" /><poi id="47266.5" type="tree" color="1,0,0" x="215.9891" y="218.8374" angle="0" /><poi id="48750.09" type="tree" color="1,0,0" x="247.9553" y="196.6084" angle="0" /><poi id="47166.17" type="tree" color="1,0,0" x="227.1565" y="207.6374" angle="0" /><poi id="30254.91" type="tree" color="1,0,0" x="165.4498" y="182.8646" angle="0" />

</additional>
