<additional>
<poi id="755.2701" type="tree" color="1,0,0" x="-25.64049" y="-29.45615" angle="0" /><poi id="6.397202" type="tree" color="1,0,0" x="-3.051716" y="-2.096264" angle="0" /><poi id="3334.944" type="tree" color="1,0,0" x="77.42351" y="43.07405" angle="0" /><poi id="-448.4015" type="tree" color="1,0,0" x="87.67525" y="-5.114346" angle="0" /><poi id="6094.136" type="tree" color="1,0,0" x="203.2375" y="29.9853" angle="0" /><poi id="3161.071" type="tree" color="1,0,0" x="231.2636" y="13.66869" angle="0" /><poi id="-769.0646" type="tree" color="1,0,0" x="-6.632729" y="115.95" angle="0" /><poi id="-1578.594" type="tree" color="1,0,0" x="-19.88042" y="79.40444" angle="0" /><poi id="15629.53" type="tree" color="1,0,0" x="147.6305" y="105.8692" angle="0" /><poi id="9634.67" type="tree" color="1,0,0" x="150.6967" y="63.9342" angle="0" /><poi id="14223.45" type="tree" color="1,0,0" x="183.3487" y="77.57597" angle="0" /><poi id="-9417.399" type="tree" color="1,0,0" x="-48.29568" y="194.9946" angle="0" /><poi id="4031.087" type="tree" color="1,0,0" x="17.88205" y="225.4265" angle="0" /><poi id="15767.04" type="tree" color="1,0,0" x="78.36739" y="201.1939" angle="0" /><poi id="13806.9" type="tree" color="1,0,0" x="76.40068" y="180.7169" angle="0" /><poi id="34546.95" type="tree" color="1,0,0" x="163.8088" y="210.898" angle="0" /><poi id="41927.42" type="tree" color="1,0,0" x="215.27" y="194.7667" angle="0" />

</additional>
