<?xml version="1.0" encoding="UTF-8"?> 
<net version="1.1" junctionCornerDetail="5" limitTurnSpeed="5.50" xmlns:xsi="http://www.w3.org/2001/XMLSchema-instance" xsi:noNamespaceSchemaLocation="http://sumo.dlr.de/xsd/net_file.xsd">
<location netOffset="0.00,0.00" convBoundary="-100,-100,400,400" origBoundary="10000000000.00,10000000000.00,-10000000000.00,-10000000000.00" projParameter="+proj=utm +zone=32 +ellps=WGS84 +datum=WGS84 +units=m +no_defs"/>
<edge id=":gneJ0_0" function="internal">
	<lane id=":gneJ0_0_0" index="0" speed="13.89" length="2.610999" shape="57.91327,53.37253 57.33012,53.66582 56.81862,54.07134 56.40004,54.57221 56.0918,55.1476"/>
</edge>
<edge id=":gneJ0_1" function="internal">
	<lane id=":gneJ0_1_0" index="0" speed="13.89" length="4.898345" shape="57.91327,53.37253 56.6892,53.33719 55.84864,52.44664 55.88398,51.22257 56.77452,50.38201"/>
</edge>
<edge id=":gneJ0_2" function="internal">
	<lane id=":gneJ0_2_0" index="0" speed="13.89" length="5.221898" shape="53.13165,53.93208 53.74812,52.78133 54.58526,51.7796 55.60825,50.96858 56.77452,50.38201"/>
</edge>
<edge id=":gneJ0_3" function="internal">
	<lane id=":gneJ0_3_0" index="0" speed="13.89" length="4.898345" shape="53.13165,53.93208 53.99491,53.06352 55.21949,53.05976 56.08805,53.92302 56.0918,55.1476"/>
</edge>
<edge id=":gneJ1_0" function="internal">
	<lane id=":gneJ1_0_0" index="0" speed="13.89" length="14.12498" shape="42.72739,90.34959 42.06821,86.88042 42.03722,83.34931 42.63541,79.86909 43.84367,76.55099"/>
</edge>
<edge id=":gneJ1_1" function="internal">
	<lane id=":gneJ1_1_0" index="0" speed="13.89" length="11.57406" shape="42.72739,90.34959 42.58494,87.45959 43.7298,84.80219 45.92797,82.92058 48.73015,82.19933"/>
</edge>
<edge id=":gneJ1_2" function="internal">
	<lane id=":gneJ1_2_0" index="0" speed="13.89" length="4.898357" shape="42.72739,90.34959 42.86843,89.13316 43.82831,88.37273 45.04475,88.51376 45.80518,89.47365"/>
</edge>
<edge id=":gneJ1_3" function="internal">
	<lane id=":gneJ1_3_0" index="0" speed="13.89" length="5.786599" shape="48.81153,85.39828 47.41089,85.76022 46.31171,86.70075 45.73755,88.02858 45.80518,89.47365"/>
</edge>
<edge id=":gneJ1_4" function="internal">
	<lane id=":gneJ1_4_0" index="0" speed="13.89" length="12.29547" shape="48.81153,85.39828 45.82999,84.65056 43.66212,82.47134 42.92999,79.48593 43.84367,76.551"/>
</edge>
<edge id=":gneJ1_5" function="internal">
	<lane id=":gneJ1_5_0" index="0" speed="13.89" length="4.898342" shape="48.81153,85.39828 47.66861,84.95857 47.17136,83.83949 47.61106,82.69656 48.73015,82.19932"/>
</edge>
<edge id=":gneJ1_6" function="internal">
	<lane id=":gneJ1_6_0" index="0" speed="13.89" length="5.353635" shape="46.80381,77.76653 46.55138,79.08092 46.83046,80.38991 47.59701,81.48705 48.73015,82.19932"/>
</edge>
<edge id=":gneJ1_7" function="internal">
	<lane id=":gneJ1_7_0" index="0" speed="13.89" length="11.92172" shape="46.80381,77.76653 45.88468,80.60168 45.40622,83.54346 45.37952,86.52377 45.80518,89.47365"/>
</edge>
<edge id=":gneJ1_8" function="internal">
	<lane id=":gneJ1_8_0" index="0" speed="13.89" length="4.898352" shape="46.80381,77.76653 45.94056,78.63509 44.71597,78.63884 43.84741,77.77557 43.84366,76.55099"/>
</edge>
<edge id=":gneJ2_0" function="internal">
	<lane id=":gneJ2_0_0" index="0" speed="13.89" length="9.546661" shape="62.55956,138.2961 60.17334,138.3423 57.93611,137.5111 56.159,135.9179 55.08913,133.7845"/>
</edge>
<edge id=":gneJ2_1" function="internal">
	<lane id=":gneJ2_1_0" index="0" speed="13.89" length="4.898358" shape="62.55956,138.2961 61.35604,138.0699 60.66497,137.0589 60.89116,135.8554 61.90212,135.1644"/>
</edge>
<edge id=":gneJ2_2" function="internal">
	<lane id=":gneJ2_2_0" index="0" speed="13.89" length="4.773331" shape="58.16691,132.9086 58.70184,133.9753 59.5904,134.7718 60.70901,135.1875 61.90212,135.1644"/>
</edge>
<edge id=":gneJ2_3" function="internal">
	<lane id=":gneJ2_3_0" index="0" speed="13.89" length="4.898338" shape="58.16691,132.9086 58.02587,134.125 57.06599,134.8854 55.84956,134.7444 55.08913,133.7845"/>
</edge>
<edge id=":gneJ3_0" function="internal">
	<lane id=":gneJ3_0_0" index="0" speed="13.89" length="14.36171" shape="91.80302,37.04367 95.35574,36.52472 98.79365,37.56009 101.4689,39.95469 102.8774,43.2573"/>
</edge>
<edge id=":gneJ3_1" function="internal">
	<lane id=":gneJ3_1_0" index="0" speed="13.89" length="4.898342" shape="91.80302,37.04367 93.02709,37.07902 93.86765,37.96956 93.83231,39.19364 92.94176,40.0342"/>
</edge>
<edge id=":gneJ3_2" function="internal">
	<lane id=":gneJ3_2_0" index="0" speed="13.89" length="9.285628" shape="99.67876,43.16502 99.07679,40.92303 97.34103,39.38157 95.04362,39.04873 92.94176,40.0342"/>
</edge>
<edge id=":gneJ3_3" function="internal">
	<lane id=":gneJ3_3_0" index="0" speed="13.89" length="4.898348" shape="99.67876,43.16502 100.1798,42.04764 101.3242,41.61183 102.4416,42.11289 102.8774,43.2573"/>
</edge>
<edge id=":gneJ4_0" function="internal">
	<lane id=":gneJ4_0_0" index="0" speed="13.89" length="10.9993" shape="98.97433,92.6351 98.50546,89.92554 97.16279,87.52579 95.09894,85.70864 92.54851,84.68062"/>
</edge>
<edge id=":gneJ4_1" function="internal">
	<lane id=":gneJ4_1_0" index="0" speed="13.89" length="19.31077" shape="98.97433,92.6351 98.99722,87.80746 99.0201,82.97983 99.04299,78.15218 99.06588,73.32455"/>
</edge>
<edge id=":gneJ4_2" function="internal">
	<lane id=":gneJ4_2_0" index="0" speed="13.89" length="16.00099" shape="98.97433,92.6351 99.67285,88.69631 101.6968,85.24586 104.7938,82.71394 108.5777,81.41626"/>
</edge>
<edge id=":gneJ4_3" function="internal">
	<lane id=":gneJ4_3_0" index="0" speed="13.89" length="4.898355" shape="98.97433,92.6351 99.44073,91.50281 100.5712,91.03196 101.7035,91.49837 102.1743,92.62881"/>
</edge>
<edge id=":gneJ4_4" function="internal">
	<lane id=":gneJ4_4_0" index="0" speed="13.89" length="11.67411" shape="108.5767,84.61626 105.7311,85.26436 103.4478,87.08221 102.1786,89.71029 102.1743,92.62881"/>
</edge>
<edge id=":gneJ4_5" function="internal">
	<lane id=":gneJ4_5_0" index="0" speed="13.89" length="16.02836" shape="108.5767,84.61626 104.5697,84.63235 100.5626,84.64844 96.55556,84.66453 92.54851,84.68062"/>
</edge>
<edge id=":gneJ4_6" function="internal">
	<lane id=":gneJ4_6_0" index="0" speed="13.89" length="16.67473" shape="108.5767,84.61626 104.5067,83.71497 101.1961,81.18162 99.26227,77.4886 99.06587,73.32455"/>
</edge>
<edge id=":gneJ4_7" function="internal">
	<lane id=":gneJ4_7_0" index="0" speed="13.89" length="4.898337" shape="108.5767,84.61626 107.4455,84.14729 106.9772,83.01578 107.4462,81.88455 108.5777,81.41626"/>
</edge>
<edge id=":gneJ4_8" function="internal">
	<lane id=":gneJ4_8_0" index="0" speed="13.89" length="11.00435" shape="102.2657,73.36105 102.6975,76.07803 104.0059,78.49807 106.0428,80.34724 108.5777,81.41627"/>
</edge>
<edge id=":gneJ4_9" function="internal">
	<lane id=":gneJ4_9_0" index="0" speed="13.89" length="19.26799" shape="102.2657,73.36105 102.2428,78.17799 102.22,82.99493 102.1972,87.81187 102.1743,92.62881"/>
</edge>
<edge id=":gneJ4_10" function="internal">
	<lane id=":gneJ4_10_0" index="0" speed="13.89" length="16.12005" shape="102.2657,73.36105 101.5208,77.32162 99.46656,80.78876 96.35057,83.34447 92.54851,84.68062"/>
</edge>
<edge id=":gneJ4_11" function="internal">
	<lane id=":gneJ4_11_0" index="0" speed="13.89" length="4.898355" shape="102.2657,73.36105 101.7842,74.487 100.6475,74.9427 99.52158,74.46119 99.06588,73.32455"/>
</edge>
<edge id=":gneJ4_12" function="internal">
	<lane id=":gneJ4_12_0" index="0" speed="13.89" length="11.8651" shape="92.52185,81.48073 95.41007,80.80476 97.72947,78.95564 99.03194,76.29063 99.06589,73.32455"/>
</edge>
<edge id=":gneJ4_13" function="internal">
	<lane id=":gneJ4_13_0" index="0" speed="13.89" length="16.05598" shape="92.52185,81.48073 96.53581,81.46461 100.5498,81.44849 104.5637,81.43237 108.5777,81.41626"/>
</edge>
<edge id=":gneJ4_14" function="internal">
	<lane id=":gneJ4_14_0" index="0" speed="13.89" length="16.63144" shape="92.52185,81.48073 96.59005,82.33952 99.92307,84.82525 101.9064,88.4796 102.1743,92.62881"/>
</edge>
<edge id=":gneJ4_15" function="internal">
	<lane id=":gneJ4_15_0" index="0" speed="13.89" length="4.898351" shape="92.52185,81.48073 93.65709,81.93992 94.13512,83.06734 93.67593,84.20258 92.54851,84.68062"/>
</edge>
<edge id=":gneJ5_0" function="internal">
	<lane id=":gneJ5_0_0" index="0" speed="13.89" length="15.94638" shape="107.0063,131.3424 103.0506,130.8463 99.06406,130.8377 95.10634,131.3167 91.23689,132.276"/>
</edge>
<edge id=":gneJ5_1" function="internal">
	<lane id=":gneJ5_1_0" index="0" speed="13.89" length="13.98172" shape="107.0063,131.3424 103.7496,130.0727 101.1756,127.7078 99.63542,124.57 99.33889,121.0872"/>
</edge>
<edge id=":gneJ5_2" function="internal">
	<lane id=":gneJ5_2_0" index="0" speed="13.89" length="4.898339" shape="107.0063,131.3424 105.9811,130.6725 105.7298,129.474 106.3996,128.4489 107.5982,128.1976"/>
</edge>
<edge id=":gneJ5_3" function="internal">
	<lane id=":gneJ5_3_0" index="0" speed="13.89" length="9.287426" shape="102.5379,121.0065 102.9357,123.294 103.9794,125.3681 105.5793,127.0508 107.5982,128.1976"/>
</edge>
<edge id=":gneJ5_4" function="internal">
	<lane id=":gneJ5_4_0" index="0" speed="13.89" length="17.7361" shape="102.5379,121.0065 101.7537,125.3707 99.30964,129.0703 95.60318,131.504 91.23689,132.276"/>
</edge>
<edge id=":gneJ5_5" function="internal">
	<lane id=":gneJ5_5_0" index="0" speed="13.89" length="4.898361" shape="102.5379,121.0065 102.0979,122.1494 100.9787,122.6463 99.83588,122.2064 99.33889,121.0872"/>
</edge>
<edge id=":gneJ5_6" function="internal">
	<lane id=":gneJ5_6_0" index="0" speed="13.89" length="12.45524" shape="90.57944,129.1442 93.51385,128.1026 96.06702,126.3201 98.05617,123.9245 99.3389,121.0872"/>
</edge>
<edge id=":gneJ5_7" function="internal">
	<lane id=":gneJ5_7_0" index="0" speed="13.89" length="17.1062" shape="90.57944,129.1442 94.79501,128.4246 99.05292,128.0257 103.3288,127.9499 107.5982,128.1976"/>
</edge>
<edge id=":gneJ5_8" function="internal">
	<lane id=":gneJ5_8_0" index="0" speed="13.89" length="4.898358" shape="90.57944,129.1442 91.78297,129.3704 92.47404,130.3814 92.24784,131.5849 91.23689,132.276"/>
</edge>
<edge id=":gneJ7_0" function="internal">
	<lane id=":gneJ7_0_0" index="0" speed="13.89" length="22.93657" shape="197.9408,100.4971 202.8403,103.4761 205.8176,108.3768 206.2035,114.0979 203.9114,119.354"/>
</edge>
<edge id=":gneJ7_1" function="internal">
	<lane id=":gneJ7_1_0" index="0" speed="13.89" length="4.898348" shape="197.9408,100.4971 198.8776,101.2857 198.9824,102.5058 198.1938,103.4427 196.9737,103.5475"/>
</edge>
<edge id=":gneJ7_2" function="internal">
	<lane id=":gneJ7_2_0" index="0" speed="13.89" length="16.13595" shape="200.8766,118.3392 201.589,114.3686 201.1349,110.3602 199.5523,106.6497 196.9737,103.5475"/>
</edge>
<edge id=":gneJ7_3" function="internal">
	<lane id=":gneJ7_3_0" index="0" speed="13.89" length="4.898321" shape="200.8766,118.3392 201.6798,117.4148 202.9014,117.3292 203.8257,118.1324 203.9114,119.354"/>
</edge>
<edge id=":gneJ8_0" function="internal">
	<lane id=":gneJ8_0_0" index="0" speed="13.89" length="9.129335" shape="196.1712,142.4998 195.073,144.5006 193.3426,145.9888 191.2,146.7752 188.9177,146.7597"/>
</edge>
<edge id=":gneJ8_1" function="internal">
	<lane id=":gneJ8_1_0" index="0" speed="13.89" length="4.898319" shape="196.1712,142.4998 195.3679,143.4242 194.1463,143.5098 193.222,142.7066 193.1364,141.485"/>
</edge>
<edge id=":gneJ8_2" function="internal">
	<lane id=":gneJ8_2_0" index="0" speed="13.89" length="4.564681" shape="189.5096,143.6149 190.6508,143.6226 191.7221,143.2295 192.5873,142.4854 193.1364,141.485"/>
</edge>
<edge id=":gneJ8_3" function="internal">
	<lane id=":gneJ8_3_0" index="0" speed="13.89" length="4.898345" shape="189.5096,143.6149 190.5348,144.2847 190.7861,145.4832 190.1162,146.5084 188.9177,146.7597"/>
</edge>

<edge id="gneE0l" from="gneJ3" to="gneJ0" priority="-1">
	<lane id="gneE0l_0" index="0" speed="13.89" length="37.48208" shape="92.94176,40.0342 57.91327,53.37253"/>
</edge>
<edge id="gneE0r" from="gneJ0" to="gneJ3" priority="-1">
	<lane id="gneE0r_0" index="0" speed="13.89" length="37.48208" shape="56.77452,50.38201 91.80302,37.04367"/>
</edge>
<edge id="gneE1l" from="gneJ1" to="gneJ0" priority="-1">
	<lane id="gneE1l_0" index="0" speed="13.89" length="24.45163" shape="43.84366,76.55099 53.13165,53.93208"/>
</edge>
<edge id="gneE1r" from="gneJ0" to="gneJ1" priority="-1">
	<lane id="gneE1r_0" index="0" speed="13.89" length="24.45163" shape="56.0918,55.1476 46.80381,77.76653"/>
</edge>
<edge id="gneE2l" from="gneJ4" to="gneJ1" priority="-1">
	<lane id="gneE2l_0" index="0" speed="13.89" length="43.77181" shape="92.54851,84.68062 91.54404,84.68899 90.53957,84.69736 89.53511,84.70573 88.53064,84.7141 87.52616,84.72247 86.52169,84.73084 85.51722,84.73921 84.51276,84.74758 83.50829,84.75596 82.50381,84.76433 81.49934,84.7727 80.49488,84.78107 79.49042,84.78944 78.48595,84.79781 77.48147,84.80618 76.477,84.81455 75.47253,84.82292 74.46806,84.8313 73.46359,84.83967 72.45912,84.84804 71.45465,84.85641 70.45019,84.86478 69.47181,84.87273 48.81153,85.39828"/>
</edge>
<edge id="gneE2r" from="gneJ1" to="gneJ4" priority="-1">
	<lane id="gneE2r_0" index="0" speed="13.89" length="43.77181" shape="48.73015,82.19932 69.39297,81.67369 70.42352,81.66489 71.42799,81.65652 72.43246,81.64815 73.43694,81.63978 74.44139,81.63141 75.44586,81.62303 76.45034,81.61466 77.45481,81.60629 78.45927,81.59792 79.46375,81.58955 80.46822,81.58118 81.47269,81.57281 82.47716,81.56444 83.48162,81.55607 84.48608,81.54769 85.49056,81.53932 86.49503,81.53095 87.4995,81.52258 88.50397,81.51421 89.50844,81.50584 90.51291,81.49747 91.51738,81.4891 92.52185,81.48073"/>
</edge>
<edge id="gneE3l" from="gneJ2" to="gneJ1" priority="-1">
	<lane id="gneE3l_0" index="0" speed="13.89" length="45.15976" shape="55.08913,133.7845 42.72739,90.34959"/>
</edge>
<edge id="gneE3r" from="gneJ1" to="gneJ2" priority="-1">
	<lane id="gneE3r_0" index="0" speed="13.89" length="45.15976" shape="45.80518,89.47365 58.16691,132.9086"/>
</edge>
<edge id="gneE4l" from="gneJ5" to="gneJ2" priority="-1">
	<lane id="gneE4l_0" index="0" speed="13.89" length="29.3024" shape="91.23689,132.276 62.55956,138.2961"/>
</edge>
<edge id="gneE4r" from="gneJ2" to="gneJ5" priority="-1">
	<lane id="gneE4r_0" index="0" speed="13.89" length="29.3024" shape="61.90212,135.1644 90.57944,129.1442"/>
</edge>
<edge id="gneE6l" from="gneJ4" to="gneJ3" priority="-1">
	<lane id="gneE6l_0" index="0" speed="13.89" length="30.139" shape="99.06588,73.32455 99.07788,72.27232 99.08988,71.22009 99.10189,70.16785 99.11389,69.11563 99.12589,68.0634 99.1379,67.01117 99.1499,65.95894 99.1619,64.90671 99.17391,63.85448 99.18591,62.80225 99.19792,61.75002 99.20992,60.6978 99.22192,59.64556 99.23444,58.56723 99.67876,43.16502"/>
	<lane id="gneE6l_1" index="1" speed="13.89" length="30.139" shape="95.86609,73.28806 95.87809,72.23582 95.89009,71.18358 95.9021,70.13135 95.9141,69.07914 95.9261,68.02689 95.93811,66.97466 95.95011,65.92245 95.96211,64.8702 95.97412,63.81797 95.98612,62.76574 95.99813,61.71351 96.01013,60.6613 96.02213,59.60905 96.03568,58.47852 96.48009,43.07275"/>
</edge>
<edge id="gneE6r" from="gneJ3" to="gneJ4" priority="-1">
	<lane id="gneE6r_0" index="0" speed="13.89" length="30.139" shape="102.8774,43.2573 102.4332,58.65594 102.4217,59.68207 102.4097,60.73429 102.3977,61.78653 102.3857,62.83875 102.3737,63.89098 102.3617,64.94321 102.3497,65.99544 102.3377,67.04767 102.3257,68.0999 102.3137,69.15213 102.3017,70.20435 102.2897,71.25658 102.2777,72.30882 102.2657,73.36105"/>
	<lane id="gneE6r_1" index="1" speed="13.89" length="30.139" shape="106.0761,43.34958 105.632,58.74465 105.6215,59.71857 105.6095,60.77078 105.5975,61.82303 105.5855,62.87526 105.5735,63.92749 105.5615,64.97971 105.5495,66.03193 105.5375,67.08418 105.5255,68.13641 105.5135,69.18862 105.5015,70.24086 105.4895,71.29309 105.4775,72.34531 105.4655,73.39754"/>
</edge>
<edge id="gneE7l" from="gneJ7" to="gneJ4" priority="-1">
	<lane id="gneE7l_0" index="0" speed="13.89" length="91.81927" shape="196.9737,103.5475 137.0586,84.55255 136.5,84.6247 135.4658,84.62439 134.4316,84.62408 133.3974,84.62376 132.3632,84.62345 131.329,84.62314 130.2948,84.62283 129.2607,84.62251 128.2264,84.6222 127.1923,84.62189 126.1581,84.62157 125.1239,84.62126 124.0897,84.62095 123.0555,84.62064 122.0213,84.62032 120.9871,84.62001 119.9529,84.6197 118.9187,84.61938 117.8845,84.61907 116.8503,84.61876 115.8161,84.61845 114.7819,84.61813 113.7477,84.61782 112.7135,84.61751 111.6793,84.6172 110.6451,84.61688 109.6109,84.61657 108.5767,84.61626"/>
	<lane id="gneE7l_1" index="1" speed="13.89" length="91.81927" shape="196.0066,106.5978 136.1065,87.60762 136.4991,87.82471 135.4649,87.82439 134.4306,87.82408 133.3965,87.82377 132.3623,87.82346 131.3281,87.82314 130.2939,87.82283 129.2597,87.82252 128.2255,87.8222 127.1913,87.82189 126.1571,87.82158 125.1229,87.82127 124.0887,87.82095 123.0545,87.82064 122.0203,87.82033 120.9861,87.82001 119.9519,87.8197 118.9177,87.81939 117.8835,87.81908 116.8493,87.81876 115.8151,87.81845 114.7809,87.81814 113.7467,87.81783 112.7125,87.81751 111.6784,87.8172 110.6442,87.81689 109.61,87.81657 108.5758,87.81626"/>
	<lane id="gneE7l_2" index="2" speed="13.89" length="91.81927" shape="195.0396,109.6482 135.1544,90.66269 136.4981,91.0247 135.4639,91.02439 134.4297,91.02408 133.3955,91.02377 132.3613,91.02345 131.3271,91.02314 130.2929,91.02283 129.2587,91.02251 128.2245,91.0222 127.1903,91.02189 126.1561,91.02158 125.1219,91.02126 124.0877,91.02095 123.0535,91.02064 122.0193,91.02032 120.9851,91.02001 119.951,91.0197 118.9168,91.01939 117.8826,91.01907 116.8484,91.01876 115.8142,91.01845 114.78,91.01814 113.7458,91.01782 112.7116,91.01751 111.6774,91.0172 110.6432,91.01688 109.609,91.01657 108.5748,91.01626"/>
</edge>
<edge id="gneE7r" from="gneJ4" to="gneJ7" priority="-1">
	<lane id="gneE7r_0" index="0" speed="13.89" length="91.81927" shape="108.5777,81.41626 109.6119,81.41657 110.6461,81.41689 111.6803,81.4172 112.7145,81.41751 113.7487,81.41782 114.7829,81.41814 115.8171,81.41845 116.8513,81.41876 117.8855,81.41908 118.9197,81.41939 119.9538,81.4197 120.988,81.42001 122.0222,81.42033 123.0564,81.42064 124.0906,81.42095 125.1248,81.42126 126.159,81.42158 127.1932,81.42189 128.2274,81.4222 129.2616,81.42252 130.2958,81.42283 131.33,81.42314 132.3642,81.42345 133.3984,81.42377 134.4326,81.42408 135.4668,81.42439 136.501,81.42471 138.0108,81.49748 197.9408,100.4971"/>
	<lane id="gneE7r_1" index="1" speed="13.89" length="91.81927" shape="108.5787,78.21626 109.6129,78.21657 110.6471,78.21688 111.6813,78.21719 112.7154,78.21751 113.7496,78.21782 114.7838,78.21813 115.818,78.21844 116.8522,78.21876 117.8864,78.21907 118.9206,78.21938 119.9548,78.2197 120.989,78.22001 122.0232,78.22032 123.0574,78.22063 124.0916,78.22095 125.1258,78.22126 126.16,78.22157 127.1942,78.22189 128.2284,78.2222 129.2626,78.22251 130.2968,78.22282 131.331,78.22314 132.3652,78.22345 133.3994,78.22376 134.4335,78.22408 135.4678,78.22439 136.502,78.2247 138.9629,78.44241 198.9078,97.44672"/>
	<lane id="gneE7r_2" index="2" speed="13.89" length="91.81927" shape="108.5796,75.01626 109.6138,75.01657 110.648,75.01688 111.6822,75.0172 112.7164,75.01751 113.7506,75.01782 114.7848,75.01814 115.819,75.01845 116.8532,75.01876 117.8874,75.01907 118.9216,75.01939 119.9558,75.0197 120.99,75.02001 122.0242,75.02032 123.0584,75.02064 124.0926,75.02095 125.1268,75.02126 126.161,75.02158 127.1952,75.02189 128.2294,75.0222 129.2636,75.02251 130.2977,75.02283 131.332,75.02314 132.3661,75.02345 133.4003,75.02377 134.4345,75.02408 135.4687,75.02439 136.5029,75.0247 139.915,75.38734 199.8749,94.39634"/>
</edge>
<edge id="gneE8l" from="gneJ5" to="gneJ4" priority="-1">
	<lane id="gneE8l_0" index="0" speed="13.89" length="28.41913" shape="99.33889,121.0872 99.00451,107.8193 99.00208,106.7748 99.0001,105.7648 98.99812,104.7549 98.99613,103.7449 98.99415,102.7349 98.99217,101.7249 98.99019,100.7149 98.9882,99.70496 98.98622,98.69498 98.98424,97.68499 98.98226,96.67501 98.98028,95.66504 98.97829,94.65506 98.97631,93.64508 98.97433,92.6351"/>
	<lane id="gneE8l_1" index="1" speed="13.89" length="28.41913" shape="96.13991,121.1678 95.8054,107.8947 95.80209,106.7811 95.80011,105.7711 95.79813,104.7611 95.79614,103.7512 95.79416,102.7412 95.79218,101.7312 95.7902,100.7212 95.78822,99.71124 95.78623,98.70126 95.78425,97.69126 95.78227,96.68128 95.78029,95.67133 95.77831,94.66135 95.77632,93.65137 95.77434,92.64139"/>
	<lane id="gneE8l_2" index="2" speed="13.89" length="28.41913" shape="92.94093,121.2484 92.60629,107.9701 92.6021,106.7874 92.60011,105.7774 92.59813,104.7674 92.59615,103.7574 92.59416,102.7474 92.59219,101.7374 92.5902,100.7275 92.58822,99.71752 92.58624,98.70754 92.58425,97.69753 92.58228,96.68755 92.58029,95.6776 92.57831,94.66763 92.57632,93.65765 92.57434,92.64767"/>
</edge>
<edge id="gneE8r" from="gneJ4" to="gneJ5" priority="-1">
	<lane id="gneE8r_0" index="0" speed="13.89" length="28.41913" shape="102.1743,92.62881 102.1763,93.63879 102.1783,94.64877 102.1803,95.65875 102.1823,96.66874 102.1842,97.67872 102.1862,98.68869 102.1882,99.69867 102.1902,100.7086 102.1922,101.7186 102.1941,102.7286 102.1961,103.7386 102.1981,104.7486 102.2001,105.7585 102.2021,106.7685 102.2036,107.744 102.5379,121.0065"/>
	<lane id="gneE8r_1" index="1" speed="13.89" length="28.41913" shape="105.3743,92.62253 105.3763,93.63251 105.3783,94.64249 105.3803,95.65247 105.3822,96.66247 105.3842,97.67245 105.3862,98.6824 105.3882,99.69238 105.3902,100.7024 105.3922,101.7124 105.3941,102.7223 105.3961,103.7323 105.3981,104.7423 105.4001,105.7523 105.4021,106.7622 105.4027,107.6686 105.7369,120.9259"/>
</edge>
<edge id="gneE9l" from="gneJ8" to="gneJ5" priority="-1">
	<lane id="gneE9l_0" index="0" speed="13.89" length="83.34975" shape="188.9177,146.7597 107.0063,131.3424"/>
</edge>
<edge id="gneE9r" from="gneJ5" to="gneJ8" priority="-1">
	<lane id="gneE9r_0" index="0" speed="13.89" length="83.34975" shape="107.5982,128.1976 189.5096,143.6149"/>
</edge>
<edge id="gneE11l" from="gneJ8" to="gneJ7" priority="-1">
	<lane id="gneE11l_0" index="0" speed="13.89" length="24.40573" shape="193.1364,141.485 200.8766,118.3392"/>
</edge>
<edge id="gneE11r" from="gneJ7" to="gneJ8" priority="-1">
	<lane id="gneE11r_0" index="0" speed="13.89" length="24.40573" shape="203.9114,119.354 196.1712,142.4998"/>
</edge>

<junction id="gneJ0" type="traffic_light" x="55.40129" y="52.61696" incLanes="gneE0l_0 gneE1l_0" intLanes=":gneJ0_0_0 :gneJ0_1_0 :gneJ0_2_0 :gneJ0_3_0" shape="58.48262,54.86781 56.20518,48.88673 51.65156,53.32435 57.5719,55.75533">
	<request index="0" response="0000" foes="1000" cont="0"/>
	<request index="1" response="0100" foes="0100" cont="0"/>
	<request index="2" response="0000" foes="0010" cont="0"/>
	<request index="3" response="0001" foes="0001" cont="0"/>
</junction>
<junction id="gneJ1" type="traffic_light" x="42.55527" y="83.90079" incLanes="gneE3l_0 gneE2l_0 gneE1r_0" intLanes=":gneJ1_0_0 :gneJ1_1_0 :gneJ1_2_0 :gneJ1_3_0 :gneJ1_4_0 :gneJ1_5_0 :gneJ1_6_0 :gneJ1_7_0 :gneJ1_8_0" shape="41.18855,90.78771 47.34402,89.03553 48.85221,86.99776 48.68946,80.59983 48.28389,78.37428 42.36359,75.94324">
	<request index="0" response="000000000" foes="100010000" cont="0"/>
	<request index="1" response="011000000" foes="011110000" cont="0"/>
	<request index="2" response="010001000" foes="010001000" cont="0"/>
	<request index="3" response="000000000" foes="010000100" cont="0"/>
	<request index="4" response="000000011" foes="110000011" cont="0"/>
	<request index="5" response="001000010" foes="001000010" cont="0"/>
	<request index="6" response="000000000" foes="000100010" cont="0"/>
	<request index="7" response="000011000" foes="000011110" cont="0"/>
	<request index="8" response="000010001" foes="000010001" cont="0"/>
</junction>
<junction id="gneJ2" type="traffic_light" x="57.85262" y="137.6493" incLanes="gneE4l_0 gneE3r_0" intLanes=":gneJ2_0_0 :gneJ2_1_0 :gneJ2_2_0 :gneJ2_3_0" shape="62.88827,139.862 61.57341,133.5985 59.7058,132.4706 53.55024,134.2225">
	<request index="0" response="0000" foes="1000" cont="0"/>
	<request index="1" response="0100" foes="0100" cont="0"/>
	<request index="2" response="0000" foes="0010" cont="0"/>
	<request index="3" response="0001" foes="0001" cont="0"/>
</junction>
<junction id="gneJ3" type="traffic_light" x="101.4432" y="35.08489" incLanes="gneE0r_0 gneE6l_0 gneE6l_1" intLanes=":gneJ3_0_0 :gneJ3_1_0 :gneJ3_2_0 :gneJ3_3_0" shape="111.9487,41.45464 113.727,35.30663 91.23364,35.54841 93.51114,41.52946 94.88076,43.02662 107.6754,43.39571">
	<request index="0" response="0000" foes="1000" cont="0"/>
	<request index="1" response="0100" foes="0100" cont="0"/>
	<request index="2" response="0000" foes="0010" cont="0"/>
	<request index="3" response="0001" foes="0001" cont="0"/>
</junction>
<junction id="gneJ4" type="traffic_light" x="100.5555" y="83.01383" incLanes="gneE8l_0 gneE8l_1 gneE8l_2 gneE7l_0 gneE7l_1 gneE7l_2 gneE6r_0 gneE6r_1 gneE2r_0" intLanes=":gneJ4_0_0 :gneJ4_1_0 :gneJ4_2_0 :gneJ4_3_0 :gneJ4_4_0 :gneJ4_5_0 :gneJ4_6_0 :gneJ4_7_0 :gneJ4_8_0 :gneJ4_9_0 :gneJ4_10_0 :gneJ4_11_0 :gneJ4_12_0 :gneJ4_13_0 :gneJ4_14_0 :gneJ4_15_0" shape="92.57434,92.64766 108.5743,92.61626 108.5801,73.41626 107.0654,73.4158 94.26619,73.26979 92.50851,79.88078 92.56184,86.28056">
	<request index="0" response="0000000000000000" foes="1000010000100000" cont="0"/>
	<request index="1" response="0111000000000000" foes="0111110001100000" cont="0"/>
	<request index="2" response="0110001100000000" foes="0110001111100000" cont="0"/>
	<request index="3" response="0100001000010000" foes="0100001000010000" cont="0"/>
	<request index="4" response="0000000000000000" foes="0100001000001000" cont="0"/>
	<request index="5" response="0000000000000111" foes="1100011000000111" cont="0"/>
	<request index="6" response="0011000000000110" foes="0011111000000110" cont="0"/>
	<request index="7" response="0010000100000100" foes="0010000100000100" cont="0"/>
	<request index="8" response="0000000000000000" foes="0010000010000100" cont="0"/>
	<request index="9" response="0000000001110000" foes="0110000001111100" cont="0"/>
	<request index="10" response="0000000001100011" foes="1110000001100011" cont="0"/>
	<request index="11" response="0001000001000010" foes="0001000001000010" cont="0"/>
	<request index="12" response="0000000000000000" foes="0000100001000010" cont="0"/>
	<request index="13" response="0000011100000000" foes="0000011111000110" cont="0"/>
	<request index="14" response="0000011000110000" foes="0000011000111110" cont="0"/>
	<request index="15" response="0000010000100001" foes="0000010000100001" cont="0"/>
</junction>
<junction id="gneJ5" type="traffic_light" x="101.035" y="128.5904" incLanes="gneE9l_0 gneE8r_0 gneE8r_1 gneE4r_0" intLanes=":gneJ5_0_0 :gneJ5_1_0 :gneJ5_2_0 :gneJ5_3_0 :gneJ5_4_0 :gneJ5_5_0 :gneJ5_6_0 :gneJ5_7_0 :gneJ5_8_0" shape="106.7103,132.9147 107.8941,126.6252 110.5353,120.805 94.54042,121.2081 90.25256,127.578 91.56377,133.8422">
	<request index="0" response="000000000" foes="100010000" cont="0"/>
	<request index="1" response="011000000" foes="011110000" cont="0"/>
	<request index="2" response="010001000" foes="010001000" cont="0"/>
	<request index="3" response="000000000" foes="010000100" cont="0"/>
	<request index="4" response="000000011" foes="110000011" cont="0"/>
	<request index="5" response="001000010" foes="001000010" cont="0"/>
	<request index="6" response="000000000" foes="000100010" cont="0"/>
	<request index="7" response="000011000" foes="000011110" cont="0"/>
	<request index="8" response="000010001" foes="000010001" cont="0"/>
</junction>
<junction id="gneJ7" type="traffic_light" x="207.3092" y="104.129" incLanes="gneE7r_0 gneE7r_1 gneE7r_2 gneE11l_0" intLanes=":gneJ7_0_0 :gneJ7_1_0 :gneJ7_2_0 :gneJ7_3_0" shape="200.3584,92.87115 194.556,111.1734 199.3588,117.8329 205.4292,119.8603">
	<request index="0" response="0000" foes="1000" cont="0"/>
	<request index="1" response="0100" foes="0100" cont="0"/>
	<request index="2" response="0000" foes="0010" cont="0"/>
	<request index="3" response="0001" foes="0001" cont="0"/>
</junction>
<junction id="gneJ8" type="traffic_light" x="193.3265" y="145.9614" incLanes="gneE11r_0 gneE9r_0" intLanes=":gneJ8_0_0 :gneJ8_1_0 :gneJ8_2_0 :gneJ8_3_0" shape="197.6886,143.0073 191.619,140.9776 189.8056,142.0425 188.6217,148.3321">
	<request index="0" response="0000" foes="1000" cont="0"/>
	<request index="1" response="0100" foes="0100" cont="0"/>
	<request index="2" response="0000" foes="0010" cont="0"/>
	<request index="3" response="0001" foes="0001" cont="0"/>
</junction>

<tlLogic id="tl0" programID="tlP1" offset="0" type="static">
	<phase duration="31" state="GGggrrrrGGggrrrr"/>
	<phase duration="5" state = "yyggrrrryyggrrrr"/>
	<phase duration="31" state = "rrrrGGggrrrrGGgg"/>
	<phase duration="5" state = "rrrryyggrrrryygg"/>
</tlLogic>
<connection from="gneE0l" to="gneE1r" fromLane="0" toLane="0" via=":gneJ0_0_0" tl="tl0" linkIndex="7" dir="r" state="="/>
<connection from=":gneJ0_0" to="gneE1r" fromLane="0" toLane="0" dir="r" state="M"/>
<connection from="gneE0l" to="gneE0r" fromLane="0" toLane="0" via=":gneJ0_1_0" tl="tl0" linkIndex="12" dir="t" state="="/>
<connection from=":gneJ0_1" to="gneE0r" fromLane="0" toLane="0" dir="t" state="M"/>
<connection from="gneE1l" to="gneE0r" fromLane="0" toLane="0" via=":gneJ0_2_0" tl="tl0" linkIndex="3" dir="l" state="="/>
<connection from=":gneJ0_2" to="gneE0r" fromLane="0" toLane="0" dir="l" state="M"/>
<connection from="gneE1l" to="gneE1r" fromLane="0" toLane="0" via=":gneJ0_3_0" tl="tl0" linkIndex="0" dir="t" state="="/>
<connection from=":gneJ0_3" to="gneE1r" fromLane="0" toLane="0" dir="t" state="M"/>