<?xml version="1.0" encoding="UTF-8"?>

<!-- generated on Tue 27 Aug 2019 12:07:52 PM CEST by Eclipse SUMO netedit Version v1_1_0+0000-2147d155b1
<configuration xmlns:xsi="http://www.w3.org/2001/XMLSchema-instance" xsi:noNamespaceSchemaLocation="http://sumo.dlr.de/xsd/netconvertConfiguration.xsd">

    <input>
        <sumo-net-file value="parkingAreaOnRoadSharedCyclelane.net.xml"/>
    </input>

    <output>
        <output-file value="parkingAreaOnRoadSharedCyclelane.net.xml"/>
    </output>

    <processing>
        <geometry.max-grade.fix value="false"/>
        <offset.disable-normalization value="true"/>
        <lefthand value="false"/>
    </processing>

    <junctions>
        <no-turnarounds value="true"/>
        <junctions.corner-detail value="5"/>
        <junctions.limit-turn-speed value="-1"/>
        <rectangular-lane-cut value="false"/>
    </junctions>

    <pedestrian>
        <walkingareas value="false"/>
    </pedestrian>

</configuration>
-->

<additional xmlns:xsi="http://www.w3.org/2001/XMLSchema-instance" xsi:noNamespaceSchemaLocation="http://sumo.dlr.de/xsd/additional_file.xsd">
    <parkingArea id="parkingArea_OnRoad" lane="parkingAreaOnRoad_0" roadsideCapacity="5" onRoad="1" startPos="0.00" endPos="41.00"/>
</additional>
