<?xml version="1.0" encoding="UTF-8"?>

<!-- generated on Tue 27 Aug 2019 03:27:16 PM CEST by Eclipse SUMO netedit Version v1_1_0+0000-2147d155b1
<configuration xmlns:xsi="http://www.w3.org/2001/XMLSchema-instance" xsi:noNamespaceSchemaLocation="http://sumo.dlr.de/xsd/netconvertConfiguration.xsd">

    <input>
        <sumo-net-file value="parkingAreaOnRoadCyclelane.net.xml"/>
    </input>

    <output>
        <output-file value="parkingAreaOnRoadCyclelane.net.xml"/>
    </output>

    <processing>
        <geometry.max-grade.fix value="false"/>
        <offset.disable-normalization value="true"/>
        <lefthand value="false"/>
    </processing>

    <junctions>
        <no-turnarounds value="true"/>
        <junctions.corner-detail value="5"/>
        <junctions.limit-turn-speed value="-1"/>
        <rectangular-lane-cut value="false"/>
    </junctions>

    <pedestrian>
        <walkingareas value="false"/>
    </pedestrian>

</configuration>
-->

<net version="1.1" junctionCornerDetail="5" xmlns:xsi="http://www.w3.org/2001/XMLSchema-instance" xsi:noNamespaceSchemaLocation="http://sumo.dlr.de/xsd/net_file.xsd">

    <location netOffset="-474821.76,-5723127.50" convBoundary="111.64,53.78,261.64,103.78" origBoundary="8.350565,51.639068,8.932897,51.833637" projParameter="+proj=utm +zone=32 +ellps=WGS84 +datum=WGS84 +units=m +no_defs"/>

    <edge id=":flowIntersection_0" function="internal">
        <lane id=":flowIntersection_0_0" index="0" allow="bicycle" speed="13.89" length="5.24" width="1.50" shape="209.19,60.98 208.99,59.56 208.38,58.54 207.36,57.93 205.94,57.73"/>
    </edge>
    <edge id=":flowIntersection_1" function="internal">
        <lane id=":flowIntersection_1_0" index="0" speed="13.89" length="7.86" width="3.20" shape="210.04,60.98 209.78,58.53 209.01,56.78 207.73,55.73 205.94,55.38"/>
    </edge>
    <edge id=":flowIntersection_2" function="internal">
        <lane id=":flowIntersection_2_0" index="0" speed="13.89" length="13.00" shape="210.04,60.98 210.50,57.13 211.87,54.38 214.15,52.73 217.34,52.18"/>
    </edge>
    <edge id=":flowIntersection_3" function="internal">
        <lane id=":flowIntersection_3_0" index="0" speed="13.89" length="7.86" shape="217.34,55.38 215.55,55.73 214.26,56.78 213.50,58.53 213.24,60.98"/>
    </edge>
    <edge id=":flowIntersection_4" function="internal">
        <lane id=":flowIntersection_4_0" index="0" speed="13.89" length="11.40" width="3.20" shape="217.34,55.38 205.94,55.38"/>
    </edge>
    <edge id=":flowIntersection_5" function="internal">
        <lane id=":flowIntersection_5_0" index="0" speed="13.89" length="11.40" shape="205.94,52.18 217.34,52.18"/>
    </edge>
    <edge id=":flowIntersection_6" function="internal">
        <lane id=":flowIntersection_6_0" index="0" speed="13.89" length="5.03" shape="205.94,52.18 209.13,52.73 210.59,53.78"/>
    </edge>
    <edge id=":flowIntersection_7" function="internal">
        <lane id=":flowIntersection_7_0" index="0" speed="13.89" length="7.97" shape="210.59,53.78 211.41,54.38 212.78,57.13 213.24,60.98"/>
    </edge>
    <edge id=":parkingAreaStart_0" function="internal">
        <lane id=":parkingAreaStart_0_0" index="0" allow="bicycle" speed="7.64" length="8.40" width="1.50" shape="190.64,57.73 188.18,58.23 186.64,59.33 185.10,60.43 182.64,60.93"/>
        <lane id=":parkingAreaStart_0_1" index="1" speed="13.89" length="8.40" shape="190.64,55.38 182.64,55.38"/>
    </edge>
    <edge id=":parkingAreaStart_2" function="internal">
        <lane id=":parkingAreaStart_2_0" index="0" speed="13.89" length="8.00" shape="182.64,52.18 190.64,52.18"/>
    </edge>
    <edge id=":parkingAreaStop_0" function="internal">
        <lane id=":parkingAreaStop_0_0" index="0" allow="bicycle" speed="7.64" length="8.40" width="1.50" shape="140.64,60.93 138.18,60.43 136.64,59.33 135.10,58.23 132.64,57.73"/>
        <lane id=":parkingAreaStop_0_1" index="1" speed="13.89" length="8.40" shape="140.64,55.38 132.64,55.38"/>
    </edge>
    <edge id=":parkingAreaStop_2" function="internal">
        <lane id=":parkingAreaStop_2_0" index="0" speed="13.89" length="8.00" shape="132.64,52.18 140.64,52.18"/>
    </edge>

    <edge id="-gneE2" from="gneJ3" to="flowIntersection" priority="-1">
        <lane id="-gneE2_0" index="0" speed="13.89" length="44.30" shape="261.64,55.38 217.34,55.38"/>
    </edge>
    <edge id="-gneE7" from="parkingAreaStop" to="parkingAreaStart" priority="-1">
        <lane id="-gneE7_0" index="0" speed="13.89" length="42.00" shape="140.64,52.18 182.64,52.18"/>
    </edge>
    <edge id="flowBeginToFlowIntersection" from="flowBegin" to="flowIntersection" priority="-1">
        <lane id="flowBeginToFlowIntersection_0" index="0" speed="13.89" length="42.80" shape="210.04,103.78 210.04,60.98"/>
    </edge>
    <edge id="flowIntersectionToParkingAreaStart" from="flowIntersection" to="parkingAreaStart" priority="-1">
        <lane id="flowIntersectionToParkingAreaStart_0" index="0" allow="bicycle" speed="13.89" length="15.30" width="1.50" shape="205.94,57.73 190.64,57.73"/>
        <lane id="flowIntersectionToParkingAreaStart_1" index="1" speed="13.89" length="15.30" width="3.20" shape="205.94,55.38 190.64,55.38"/>
    </edge>
    <edge id="gneE2" from="flowIntersection" to="gneJ3" priority="-1">
        <lane id="gneE2_0" index="0" speed="13.89" length="44.30" shape="217.34,52.18 261.64,52.18"/>
    </edge>
    <edge id="gneE3" from="flowIntersection" to="flowBegin" priority="-1">
        <lane id="gneE3_0" index="0" speed="13.89" length="42.80" shape="213.24,60.98 213.24,103.78"/>
    </edge>
    <edge id="gneE6" from="flowEnd" to="parkingAreaStop" priority="-1">
        <lane id="gneE6_0" index="0" speed="13.89" length="21.00" shape="111.64,52.18 132.64,52.18"/>
    </edge>
    <edge id="gneE8" from="parkingAreaStart" to="flowIntersection" priority="-1">
        <lane id="gneE8_0" index="0" speed="13.89" length="15.30" shape="190.64,52.18 205.94,52.18"/>
    </edge>
    <edge id="parkingAreaOnRoad" from="parkingAreaStart" to="parkingAreaStop" priority="-1">
        <lane id="parkingAreaOnRoad_0" index="0" allow="bicycle" speed="1.39" length="42.00" width="1.50" shape="182.64,60.93 140.64,60.93"/>
        <lane id="parkingAreaOnRoad_1" index="1" speed="13.89" length="42.00" shape="182.64,58.58 140.64,58.58"/>
        <lane id="parkingAreaOnRoad_2" index="2" speed="13.89" length="42.00" shape="182.64,55.38 140.64,55.38"/>
    </edge>
    <edge id="parkingAreaStopToFlowEnd" from="parkingAreaStop" to="flowEnd" priority="-1">
        <lane id="parkingAreaStopToFlowEnd_0" index="0" allow="bicycle" speed="13.89" length="21.00" width="1.50" shape="132.64,57.73 111.64,57.73"/>
        <lane id="parkingAreaStopToFlowEnd_1" index="1" speed="13.89" length="21.00" shape="132.64,55.38 111.64,55.38"/>
    </edge>

    <junction id="flowBegin" type="dead_end" x="211.64" y="103.78" incLanes="gneE3_0" intLanes="" shape="211.64,103.78 214.84,103.78 211.64,103.78"/>
    <junction id="flowEnd" type="dead_end" x="111.64" y="53.78" incLanes="parkingAreaStopToFlowEnd_0 parkingAreaStopToFlowEnd_1" intLanes="" shape="111.64,53.78 111.64,58.48 111.64,53.78"/>
    <junction id="flowIntersection" type="priority" x="211.64" y="53.78" incLanes="flowBeginToFlowIntersection_0 -gneE2_0 gneE8_0" intLanes=":flowIntersection_0_0 :flowIntersection_1_0 :flowIntersection_2_0 :flowIntersection_3_0 :flowIntersection_4_0 :flowIntersection_5_0 :flowIntersection_7_0" shape="208.44,60.98 214.84,60.98 215.12,58.76 215.46,57.98 215.95,57.42 216.58,57.09 217.34,56.98 217.34,50.58 205.94,50.58 205.94,58.48 207.33,58.76 207.81,59.10 208.16,59.59 208.37,60.22">
        <request index="0" response="0000000" foes="0000000" cont="0"/>
        <request index="1" response="0010000" foes="0010000" cont="0"/>
        <request index="2" response="1110000" foes="1110000" cont="0"/>
        <request index="3" response="0000000" foes="1000000" cont="0"/>
        <request index="4" response="0000000" foes="1000110" cont="0"/>
        <request index="5" response="0000000" foes="0000100" cont="0"/>
        <request index="6" response="0011000" foes="0011100" cont="1"/>
    </junction>
    <junction id="gneJ3" type="dead_end" x="261.64" y="53.78" incLanes="gneE2_0" intLanes="" shape="261.64,53.78 261.64,50.58 261.64,53.78"/>
    <junction id="parkingAreaStart" type="priority" x="186.64" y="53.78" incLanes="flowIntersectionToParkingAreaStart_0 flowIntersectionToParkingAreaStart_1 -gneE7_0" intLanes=":parkingAreaStart_0_0 :parkingAreaStart_0_1 :parkingAreaStart_2_0" shape="190.64,58.48 190.64,50.58 182.64,50.58 182.64,61.68 185.67,60.85 187.61,59.31 188.85,58.72">
        <request index="0" response="000" foes="000" cont="0"/>
        <request index="1" response="000" foes="000" cont="0"/>
        <request index="2" response="000" foes="000" cont="0"/>
    </junction>
    <junction id="parkingAreaStop" type="priority" x="136.64" y="53.78" incLanes="parkingAreaOnRoad_0 parkingAreaOnRoad_1 parkingAreaOnRoad_2 gneE6_0" intLanes=":parkingAreaStop_0_0 :parkingAreaStop_0_1 :parkingAreaStop_2_0" shape="140.64,61.68 140.64,50.58 132.64,50.58 132.64,58.48 135.67,59.31 137.61,60.85 138.85,61.44">
        <request index="0" response="000" foes="000" cont="0"/>
        <request index="1" response="000" foes="000" cont="0"/>
        <request index="2" response="000" foes="000" cont="0"/>
    </junction>

    <junction id=":flowIntersection_7_0" type="internal" x="210.59" y="53.78" incLanes=":flowIntersection_6_0 -gneE2_0" intLanes=":flowIntersection_2_0 :flowIntersection_3_0 :flowIntersection_4_0"/>

    <connection from="-gneE2" to="gneE3" fromLane="0" toLane="0" via=":flowIntersection_3_0" dir="r" state="M"/>
    <connection from="-gneE2" to="flowIntersectionToParkingAreaStart" fromLane="0" toLane="1" via=":flowIntersection_4_0" dir="s" state="M"/>
    <connection from="-gneE7" to="gneE8" fromLane="0" toLane="0" via=":parkingAreaStart_2_0" dir="s" state="M"/>
    <connection from="flowBeginToFlowIntersection" to="flowIntersectionToParkingAreaStart" fromLane="0" toLane="0" via=":flowIntersection_0_0" dir="r" state="M"/>
    <connection from="flowBeginToFlowIntersection" to="flowIntersectionToParkingAreaStart" fromLane="0" toLane="1" via=":flowIntersection_1_0" dir="r" state="m"/>
    <connection from="flowBeginToFlowIntersection" to="gneE2" fromLane="0" toLane="0" via=":flowIntersection_2_0" dir="l" state="m"/>
    <connection from="flowIntersectionToParkingAreaStart" to="parkingAreaOnRoad" fromLane="0" toLane="0" via=":parkingAreaStart_0_0" dir="s" state="M"/>
    <connection from="flowIntersectionToParkingAreaStart" to="parkingAreaOnRoad" fromLane="1" toLane="2" via=":parkingAreaStart_0_1" dir="s" state="M"/>
    <connection from="gneE6" to="-gneE7" fromLane="0" toLane="0" via=":parkingAreaStop_2_0" dir="s" state="M"/>
    <connection from="gneE8" to="gneE2" fromLane="0" toLane="0" via=":flowIntersection_5_0" dir="s" state="M"/>
    <connection from="gneE8" to="gneE3" fromLane="0" toLane="0" via=":flowIntersection_6_0" dir="l" state="m"/>
    <connection from="parkingAreaOnRoad" to="parkingAreaStopToFlowEnd" fromLane="0" toLane="0" pass="1" via=":parkingAreaStop_0_0" dir="s" state="M"/>
    <connection from="parkingAreaOnRoad" to="parkingAreaStopToFlowEnd" fromLane="2" toLane="1" via=":parkingAreaStop_0_1" dir="s" state="M"/>

    <connection from=":flowIntersection_0" to="flowIntersectionToParkingAreaStart" fromLane="0" toLane="0" dir="r" state="M"/>
    <connection from=":flowIntersection_1" to="flowIntersectionToParkingAreaStart" fromLane="0" toLane="1" dir="r" state="M"/>
    <connection from=":flowIntersection_2" to="gneE2" fromLane="0" toLane="0" dir="l" state="M"/>
    <connection from=":flowIntersection_3" to="gneE3" fromLane="0" toLane="0" dir="r" state="M"/>
    <connection from=":flowIntersection_4" to="flowIntersectionToParkingAreaStart" fromLane="0" toLane="1" dir="s" state="M"/>
    <connection from=":flowIntersection_5" to="gneE2" fromLane="0" toLane="0" dir="s" state="M"/>
    <connection from=":flowIntersection_6" to="gneE3" fromLane="0" toLane="0" via=":flowIntersection_7_0" dir="l" state="m"/>
    <connection from=":flowIntersection_7" to="gneE3" fromLane="0" toLane="0" dir="l" state="M"/>
    <connection from=":parkingAreaStart_0" to="parkingAreaOnRoad" fromLane="0" toLane="0" dir="s" state="M"/>
    <connection from=":parkingAreaStart_0" to="parkingAreaOnRoad" fromLane="1" toLane="2" dir="s" state="M"/>
    <connection from=":parkingAreaStart_2" to="gneE8" fromLane="0" toLane="0" dir="s" state="M"/>
    <connection from=":parkingAreaStop_0" to="parkingAreaStopToFlowEnd" fromLane="0" toLane="0" dir="s" state="M"/>
    <connection from=":parkingAreaStop_0" to="parkingAreaStopToFlowEnd" fromLane="1" toLane="1" dir="s" state="M"/>
    <connection from=":parkingAreaStop_2" to="-gneE7" fromLane="0" toLane="0" dir="s" state="M"/>

</net>
