<?xml version="1.0" encoding="UTF-8"?>

<configuration xmlns:xsi="http://www.w3.org/2001/XMLSchema-instance" xsi:noNamespaceSchemaLocation="http://sumo.dlr.de/xsd/sumoConfiguration.xsd">
    <input>
        <net-file value="parkingAreaOnRoad.net.xml"/>
        <route-files value="parkingAreaOnRoad.rou.xml"/>
        <additional-files value="parkingAreaOnRoad.poly.xml"/>
    </input>

    <time>
        <begin value="0"/>
        <end value="120"/>
        <step-length value="0.1"/>
    </time>

    <gui_only>
        <gui-settings-file value="parkingAreaOnRoad.view.xml"/>
    </gui_only>
</configuration>
