<?xml version="1.0" encoding="UTF-8"?>
<routes xmlns:xsi="http://www.w3.org/2001/XMLSchema-instance" xsi:noNamespaceSchemaLocation="http://sumo.dlr.de/xsd/routes_file.xsd">
	<!-- type and route information for ego vehicle to allow external spawning -->
	<vType id="ego-type" color="blue"/>
	<route id="ego-route" edges="136818380 354694307#1 -167373722 -30926598#10 -30926598#9 -30926598#7 -30926598#6 -30926598#5 -30926598#4 -30926598#3 -30926598#2 -30926598#1 -30926598#0 16765072#0 16765072#3 43128048#8 43128048#9 43128048#11 43128048#13 43128048#14 43128048#15 43128048#19 43128048#20 43128048#23 89697011#0 89697011#2 89697011#3 89697011#4 4274410 -36105254 -237119040 -326639304 -326639305 -19800724 -236091932 -260318977 -173156209#1 -173156209#0 -4289949#1 -326638138#1 -4494944 -204125456 -4494945  -31178802 -129438607#2 -283921463#3 -283921463#1 -283921463#0 -332708628#0 -175846761 -207204932 -332708627#1 -332708627#0 -431896436#1 -431896434 -332708626#3 -332708626#1 -332708626#0 -332708621 -172326393#2 141263765#0 136818377 236094251 30926593#0 30926593#1 30926593#2 30926593#3 27475070 236094250 150748005#0 236466786#0 431896441 236094252#0 30724791#0"/>
</routes>
