<additional>
  <tlLogic id="1544004703" type="static" programID="static" offset="0.0">
    <phase duration="36" state="rrGGGg"/>
    <phase duration="4" state="rryyyg"/>
    <phase duration="6" state="rrrrrG"/>
    <phase duration="4" state="rrrrry"/>
    <phase duration="36" state="GGGrGr"/>
    <phase duration="4" state="yyyryr"/>
  </tlLogic>
  <tlLogic id="1549181913" type="static" programID="static" offset="0.0">
    <phase duration="38" state="GgrrGG"/>
    <phase duration="3" state="ygrryy"/>
    <phase duration="6" state="rGrrrr"/>
    <phase duration="3" state="ryrrrr"/>
    <phase duration="37" state="rrGGGr"/>
    <phase duration="3" state="rryyyr"/>
  </tlLogic>
  <tlLogic id="1549361015" type="static" programID="static" offset="0.0">
    <phase duration="36" state="GgrrGG"/>
    <phase duration="4" state="ygrryy"/>
    <phase duration="6" state="rGrrrr"/>
    <phase duration="4" state="ryrrrr"/>
    <phase duration="36" state="rrGGGr"/>
    <phase duration="4" state="rryyyr"/>
  </tlLogic>
  <tlLogic id="1549361023" type="static" programID="static" offset="0.0">
    <phase duration="31" state="GggrrrrrrrGGG"/>
    <phase duration="4" state="yggrrrrrrryyy"/>
    <phase duration="6" state="rGGrrrrrrrrrr"/>
    <phase duration="4" state="ryyrrrrrrrrrr"/>
    <phase duration="31" state="rrrGGGGGggrrr"/>
    <phase duration="4" state="rrryyyyyggrrr"/>
    <phase duration="6" state="rrrrrrrrGGrrr"/>
    <phase duration="4" state="rrrrrrrryyrrr"/>
  </tlLogic>
  <tlLogic id="1831219055" type="static" programID="static" offset="0.0">
    <phase duration="31" state="GGGGGgggrrrrr"/>
    <phase duration="4" state="yyyyygggrrrrr"/>
    <phase duration="6" state="rrrrrGGGrrrrr"/>
    <phase duration="4" state="rrrrryyyrrrrr"/>
    <phase duration="31" state="rrrrrrrrGGGgg"/>
    <phase duration="4" state="rrrrrrrryyygg"/>
    <phase duration="6" state="rrrrrrrrrrrGG"/>
    <phase duration="4" state="rrrrrrrrrrryy"/>
  </tlLogic>
  <tlLogic id="1833020826" type="static" programID="static" offset="0.0">
    <phase duration="86" state="GGGG"/>
    <phase duration="4" state="yyyy"/>
  </tlLogic>
  <tlLogic id="25308956" type="static" programID="static" offset="0.0">
    <phase duration="33" state="rrrGGGgrrrGGg"/>
    <phase duration="3" state="rrryyygrrryyg"/>
    <phase duration="6" state="rrrrrrGrrrrrG"/>
    <phase duration="3" state="rrrrrryrrrrry"/>
    <phase duration="33" state="GGgrrrrGGgrrr"/>
    <phase duration="3" state="yygrrrryygrrr"/>
    <phase duration="6" state="rrGrrrrrrGrrr"/>
    <phase duration="3" state="rryrrrrrryrrr"/>
  </tlLogic>
  <tlLogic id="25323913" type="static" programID="static" offset="0.0">
    <phase duration="31" state="rrrGGgrrrGGg"/>
    <phase duration="4" state="rrryygrrryyg"/>
    <phase duration="6" state="rrrrrGrrrrrG"/>
    <phase duration="4" state="rrrrryrrrrry"/>
    <phase duration="31" state="GGgrrrGGgrrr"/>
    <phase duration="4" state="yygrrryygrrr"/>
    <phase duration="6" state="rrGrrrrrGrrr"/>
    <phase duration="4" state="rryrrrrryrrr"/>
  </tlLogic>
  <tlLogic id="25590163" type="static" programID="static" offset="0.0">
    <phase duration="29" state="GGgrrrGGgrr"/>
    <phase duration="5" state="yygrrryygrr"/>
    <phase duration="6" state="rrGrrrrrGrr"/>
    <phase duration="5" state="rryrrrrryrr"/>
    <phase duration="29" state="rrrGGgGrrGg"/>
    <phase duration="5" state="rrryygyrryg"/>
    <phase duration="6" state="rrrrrGrrrrG"/>
    <phase duration="5" state="rrrrryrrrry"/>
  </tlLogic>
  <tlLogic id="31260708" type="static" programID="static" offset="0.0">
    <phase duration="36" state="GGgGGgrrr"/>
    <phase duration="4" state="yygyygrrr"/>
    <phase duration="6" state="rrGrrGrrr"/>
    <phase duration="4" state="rryrryrrr"/>
    <phase duration="36" state="GrrrrrGGG"/>
    <phase duration="4" state="yrrrrryyy"/>
  </tlLogic>
  <tlLogic id="35145931" type="static" programID="static" offset="0.0">
    <phase duration="33" state="GgrrrGGG"/>
    <phase duration="6" state="ygrrryyy"/>
    <phase duration="6" state="rGrrrrrr"/>
    <phase duration="6" state="ryrrrrrr"/>
    <phase duration="33" state="rrGGGGrr"/>
    <phase duration="6" state="rryyyyrr"/>
  </tlLogic>
  <tlLogic id="536777420" type="static" programID="static" offset="0.0">
    <phase duration="27" state="GgrrrGGGgrrr"/>
    <phase duration="6" state="ygrrryyygrrr"/>
    <phase duration="6" state="rGrrrrrrGrrr"/>
    <phase duration="6" state="ryrrrrrryrrr"/>
    <phase duration="27" state="rrGGgrrrrGGg"/>
    <phase duration="6" state="rryygrrrryyg"/>
    <phase duration="6" state="rrrrGrrrrrrG"/>
    <phase duration="6" state="rrrryrrrrrry"/>
  </tlLogic>
  <tlLogic id="6566067" type="static" programID="static" offset="0.0">
    <phase duration="31" state="GGggrrrGGgrrr"/>
    <phase duration="4" state="yyggrrryygrrr"/>
    <phase duration="6" state="rrGGrrrrrGrrr"/>
    <phase duration="4" state="rryyrrrrryrrr"/>
    <phase duration="31" state="rrrrGGgrrrGGg"/>
    <phase duration="4" state="rrrryygrrryyg"/>
    <phase duration="6" state="rrrrrrGrrrrrG"/>
    <phase duration="4" state="rrrrrryrrrrry"/>
  </tlLogic>
  <tlLogic id="6566109" type="static" programID="static" offset="0.0">
    <phase duration="31" state="GgggrrrrrrrGGGG"/>
    <phase duration="4" state="ygggrrrrrrryyyy"/>
    <phase duration="6" state="rGGGrrrrrrrrrrr"/>
    <phase duration="4" state="ryyyrrrrrrrrrrr"/>
    <phase duration="31" state="rrrrGGGGgggrrrr"/>
    <phase duration="4" state="rrrryyyygggrrrr"/>
    <phase duration="6" state="rrrrrrrrGGGrrrr"/>
    <phase duration="4" state="rrrrrrrryyyrrrr"/>
  </tlLogic>
  <tlLogic id="cluster_206192111_687055152" type="static" programID="static" offset="0.0">
    <phase duration="36" state="rrrGGGGGg"/>
    <phase duration="4" state="rrryyyyyg"/>
    <phase duration="6" state="rrrrrrrrG"/>
    <phase duration="4" state="rrrrrrrry"/>
    <phase duration="36" state="GGGGrrrrr"/>
    <phase duration="4" state="yyyyrrrrr"/>
  </tlLogic>

</additional>
