<?xml version="1.0" encoding="UTF-8"?>
<!-- generated with cutRoutes.py for paderborn-hynets.net.xml from ['routes.rou.xml'] -->
<routes xmlns:xsi="http://www.w3.org/2001/XMLSchema-instance" xsi:noNamespaceSchemaLocation="http://sumo.dlr.de/xsd/routes_file.xsd">
    <vType id="bus" vClass="bus" color="green"/>
    <vType id="default" vClass="passenger" color="red"/>
    <vType id="random" vClass="passenger" color="orange"/>
    <vehicle arrivalPos="max" depart="36000.00" departPos="base" id="blPadersprinter__68:__Paderborn__TO__Sandeb6:1_part0" type="bus">
        <route edges="-396538258 -23642622 4274410 24395744 361440482"/>
    </vehicle>
    <vehicle arrivalPos="max" depart="36000.00" departPos="base" id="blPadersprinter__68:__Paderborn__TO__Sandeb6:1_part1" type="bus">
        <route edges="30724793#0 30724793#2 104799450#0 104799450#1 43111546#0 43111546#1 43111546#2 172326394 86437822 86437827 326442767#0"/>
    </vehicle>
    <vehicle arrivalPos="max" depart="36001.00" departPos="base" id="h44486c1:1" type="default">
        <route edges="-34835600 -43111543 -280764573 -236088093#1 -89697011#3 -89697011#2 -89697011#0 -384069344 -43128048#22 -43128048#19 -43128048#18 -43128048#14 -43128048#13 -43128048#12 -43128048#10 -43128048#8 -43128048#7 -43128048#6 -43128048#4 -43128048#2 -43128048#1 -43128048#0 -354694307#1 -354694307#0 -30724791#1 150748003#0 136818406"/>
    </vehicle>
    <vehicle arrivalPos="max" depart="36001.00" departPos="base" id="h69828c1:1_part0" type="default">
        <route edges="-34835600 -43111543 -280764573 23642622 236088097"/>
    </vehicle>
    <vehicle arrivalPos="max" depart="36001.00" departPos="base" id="h69828c1:1_part1" type="default">
        <route edges="-396538258 -23642622 4274410 24395744 361440482"/>
    </vehicle>
    <vehicle arrivalPos="max" depart="36001.00" departPos="base" id="carIn19493:1" type="default">
        <route edges="236094249 136818355 67847465#0 136818377 236094251 30926593#0 30926593#1 30926593#2 30926593#3 27475070 236094250 150748005#0 236466786#0 431896441 236094252#0 150748003#0 136818406"/>
    </vehicle>
    <vehicle arrivalPos="max" depart="36002.00" departPos="base" id="h46324c1:3" type="default">
        <route edges="-34835600 -43111543 -36105254 -237119040 -326639304 -326639305 -19800724 -236091932 -260318977 -173156209#1 -173156209#0 -4289949#1 -76168994#1 -43111546#2 -43111546#1 -43111546#0 19791254"/>
    </vehicle>
    <vehicle arrivalPos="max" depart="36002.00" departPos="base" id="h46634c1:3" type="default">
        <route edges="-34835600 -43111543 -36105254 -237119040 -326639304 -326639305 -19800724 -236091932 -260318977 -173156209#1 -173156209#0 -4289949#1 86437822 86437827 326442767#0"/>
    </vehicle>
    <vehicle arrivalPos="max" depart="36003.00" departPos="base" id="h47295c1:1_part0" type="default">
        <route edges="-34835600 -43111543 -280764573 23642622 236088097"/>
    </vehicle>
    <vehicle arrivalPos="max" depart="36003.00" departPos="base" id="h47295c1:1_part1" type="default">
        <route edges="-396538258 -23642622 4274410 24395744 361440482"/>
    </vehicle>
    <vehicle arrivalPos="max" arrivalSpeed="current" depart="36007.00" departPos="base" id="h37232c2:1_part1" type="default">
        <route edges="-16568909#1 30926598#9 30926598#10 30926598#11 -354694307#1 -354694307#0 -30724791#1 -236094252#1 -431896441 -236466786#1 -150748005#1 -236094250 -27475070 -30926593#4 -30926593#2 -30926593#1 -30926593#0 -236094251 -136818377 -141263765#1 -22616468 -136818355 -236094249"/>
    </vehicle>
    <vehicle arrivalPos="max" depart="36009.00" departPos="base" id="h48189c2:1" type="default">
        <route edges="-431896440#1 150748005#0 236466786#0 431896441 236094252#0 150748003#0 136818406"/>
    </vehicle>
    <vehicle arrivalPos="max" depart="36009.00" departPos="base" id="carIn23850:1" type="default">
        <route edges="-326442767#0 -86437827 4274524#0 41732722#0 41732722#1 326445346 4289949#0 173156209#0 173156209#1 260318977 236091932 19800724 431896437 326639304 237119040 92161083 -280764573 23642622 236088097"/>
    </vehicle>
    <vehicle arrivalPos="max" depart="36012.00" departPos="base" id="h22484c1:1" type="default">
        <route edges="30724793#0 30724793#2 104799450#0 104799450#1 43111546#0 43111546#1 43111546#2 172326394 4289949#0 173156209#0 173156209#1 260318977 236091932 19800724 431896437 326639304 237119040 92161083 -280764573 -236088093#1 -89697011#3 -89697011#2 -89697011#0 -384069344 -43128048#22 -43128048#19 -43128048#18 -43128048#14 -43128048#13 -43128048#12 -43128048#10 -43128048#8 -43128048#7 -43128048#6 -43128048#4 -43128048#2 -43128048#1 -43128048#0 -354694307#1 -354694307#0 -30724791#1 150748003#0 136818406"/>
    </vehicle>
    <vehicle arrivalPos="max" depart="36015.00" departPos="base" id="h67205c1:1" type="default">
        <route edges="-396538258 -23642622 4274410 -36105254 -237119040 -326639304 -326639305 -19800724 -236091932 -260318977 -173156209#1 -173156209#0 -4289949#1 -76168994#1 -43111546#2 -43111546#1 -43111546#0 -104799450#1 -104799450#0 -30724793#2 -30724793#1"/>
    </vehicle>
    <vehicle arrivalPos="max" depart="36018.00" departPos="base" id="h33423c1:3" type="default">
        <route edges="236094249 136818355 136818359 172326393#0 332708621 332708626#0 332708626#1 332708626#2 431896434 431896436#0 332708627#0 332708627#1 207204932 141046113#0"/>
    </vehicle>
    <vehicle arrivalPos="max" depart="36018.00" departPos="base" id="h38492c1:5" type="default">
        <route edges="30724793#0 30724793#2 104799450#0 104799450#1 43111546#0 43111546#1 43111546#2 172326394 4289949#0 173156209#0 173156209#1 260318977 236091932 19800724 431896437 326639304 237119040 92161083 -280764573 23642622 236088097"/>
    </vehicle>
    <vehicle arrivalPos="max" depart="36018.00" departPos="base" id="h61150c1:1_part0" type="default">
        <route edges="-34835600 -43111543 -36105254 -237119040 -326639304 -326639305 -19800724 -236091932 -260318977 -173156209#1 -173156209#0 -4289949#1 -326638138#1 -4494944 -204125456 -4494945 -31178802 -129438607#2 -283921463#3 -283921463#1 -283921463#0 -332708628#0 -175846761 -207204932 -332708627#1 -332708627#0 -431896436#1 -431896434 -332708626#3 -332708626#1 -332708626#0 -332708621 -172326393#2 -22616468 -136818355 -236094249"/>
    </vehicle>
    <vehicle arrivalPos="max" depart="36018.00" departPos="base" id="h61150c1:1_part1" type="default">
        <route edges="236094249 136818355 136818359 172326393#0 332708621 332708626#0 332708626#1 332708626#2 431896434 431896436#0 332708627#0 332708627#1 207204932 175846761 332708628#0 332708628#1 283921463#1 283921463#2 129438607#0 31178802 42223973 204125456 4494944 326638138#0 4289949#0 173156209#0 173156209#1 260318977 236091932 19800724 431896437 326639304 237119040 92161083 24395744 361440482"/>
    </vehicle>
    <vehicle arrivalPos="max" depart="36018.00" departPos="base" id="carIn18276:1" type="default">
        <route edges="-326442767#0 -86437827 4274524#0 41732722#0 41732722#1 326445346 4289949#0 173156209#0 173156209#1 260318977 236091932 19800724 431896437 326639304 237119040 92161083 24395744 361440482"/>
    </vehicle>
    <vehicle arrivalPos="max" depart="36019.00" departPos="base" id="h10550c1:1" type="default">
        <route edges="-34835600 -43111543 -36105254 -237119040 -326639304 -326639305 -19800724 -236091932 -260318977 -173156209#1 -173156209#0 -4289949#1 86437822 86437827"/>
    </vehicle>
    <vehicle arrivalPos="max" depart="36019.00" departPos="base" id="h33900c1:1" type="default">
        <route edges="43128047#5 30926598#0 30926598#1 30926598#2 30926598#3 30926598#4 30926598#5 30926598#6 30926598#7 30926598#9 30926598#10 30926598#11 -354694307#1 -354694307#0 -30724791#1 150748003#0 136818406"/>
    </vehicle>
    <vehicle arrivalPos="max" arrivalSpeed="current" depart="36020.00" departPos="base" id="h9557c2:1" type="default">
        <route edges="-34835600 -43111543 -36105254 -237119040 -326639304 -326639305 -19800724 -236091932 -260318977 -173156209#1 -173156209#0 -4289949#1 86437822 86437827 326442767#0"/>
    </vehicle>
    <vehicle arrivalPos="max" depart="36020.00" departPos="base" id="h37520c1:1" type="default">
        <route edges="16575086#4 23642622 236088097"/>
    </vehicle>
    <vehicle arrivalPos="max" depart="36020.00" departPos="base" id="carIn26747:1" type="default">
        <route edges="236094249 136818355 67847465#0 136818377 236094251 30926593#0 30926593#1 30926593#2 30926593#3 27475070 236094250 150748005#0 236466786#0 431896441 236094252#0 -72146425#2 -72146425#0"/>
    </vehicle>
    <vehicle arrivalPos="max" depart="36020.00" departPos="base" id="carIn29906:1" type="default">
        <route edges="236094249 136818355 136818359 -366808352#1"/>
    </vehicle>
    <vehicle arrivalPos="max" depart="36020.00" departPos="base" id="randUni27504:1" type="random">
        <route edges="172188196#4 31178802 42223973 204125456 4494944 326638138#0 4289949#0 173156209#0 173156209#1 260318977 236091932 19800724 431896437 326639304 237119040 92161083 -280764573 23642622 236088097"/>
    </vehicle>
    <vehicle arrivalPos="max" depart="36022.00" departPos="base" id="h31397c1:1" type="default">
        <route edges="30724793#0 30724793#2 104799450#0 104799450#1 43111546#0 43111546#1 43111546#2 172326394 4289949#0 173156209#0 173156209#1 260318977 236091932 19800724 431896437 -190397759 5113746#0 5113746#1"/>
    </vehicle>
    <vehicle arrivalPos="max" depart="36023.00" departPos="base" id="h37265c2:1" type="default">
        <route edges="16575061#0 -43128048#12 -43128048#10 -43128048#8 -43128048#7 -43128048#6 -43128048#4 -43128048#2 -43128048#1 -43128048#0 -354694307#1 -354694307#0 -30724791#1 150748003#0 136818406"/>
    </vehicle>
    <vehicle arrivalPos="max" depart="36024.00" departPos="base" id="h30472c1:1" type="default">
        <route edges="-136818406 -150748003#1 -236094252#1 -431896441 -236466786#1 -150748005#1 -236094250 -27475070 -30926593#4 -30926593#2 -30926593#1 -30926593#0 -236094251 -136818377 -141263765#1 -22616468 -136818355 -236094249"/>
    </vehicle>
    <vehicle arrivalPos="max" depart="36024.00" departPos="base" id="carIn29811:1" type="default">
        <route edges="236094249 136818355 67847465#0 136818377 236094251 30926593#0 30926593#1 30926593#2 30926593#3 27475070 236094250 150748005#0 236466786#0 431896441 236094252#0 150748003#0 136818406"/>
    </vehicle>
    <vehicle arrivalPos="max" depart="36027.00" departPos="base" id="h12139c1:1" type="default">
        <route edges="-34835600 -43111543 -36105254 -237119040 -326639304 -326639305 -19800724 -236091932 -260318977 -173156209#1 -173156209#0 -4289949#1 -326638138#1 -4494944 -204125456 -4494945 -31178802 -172188196#5"/>
    </vehicle>
    <vehicle arrivalPos="max" depart="36027.00" departPos="base" id="h36953c2:1" type="default">
        <route edges="-136818406 -150748003#1 -236094252#1 -431896441 -236466786#1 -150748005#1 -236094250 -27475070 -30926593#4 -30926593#2 -30926593#1 -30926593#0 -236094251 -136818377 -141263765#1 -22616468 -136818355 -236094249"/>
    </vehicle>
    <vehicle arrivalPos="max" depart="36029.00" departPos="base" id="h37530c1:1" type="default">
        <route edges="-52902617#2 -283921463#3 -283921463#1 -283921463#0 -332708628#0 -175846761 -207204932 -332708627#1 -332708627#0 -431896436#1 -431896434 -332708626#3 -332708626#1 -332708626#0 -332708621 -172326393#2 -22616468 -136818355 -236094249"/>
    </vehicle>
    <vehicle arrivalPos="max" depart="36029.00" departPos="base" id="h69245c1:1" type="default">
        <route edges="16575086#4 4274410 24395744 361440482"/>
    </vehicle>
    <vehicle arrivalPos="max" depart="36031.00" departPos="base" id="h44274c1:3" type="default">
        <route edges="-136818406 -150748003#1 -236094252#1 -431896441 -24608096#3"/>
    </vehicle>
    <vehicle arrivalPos="max" depart="36032.00" departPos="base" id="h704c1:1" type="default">
        <route edges="30724793#0 30724793#2 104799450#0 104799450#1 43111546#0 43111546#1 43111546#2 172326394 4289949#0 173156209#0 173156209#1 260318977 236091932 19800724 431896437 326639304 237119040 92161083 -280764573 -236088093#1 -89697011#3 -89697011#2 -89697011#0 -384069344 -43128048#22 -43128048#19 -43128048#18 -43128048#14 -43128048#13 -43128048#12 -43128048#10 -43128048#8 -43128048#7 -43128048#6 -43128048#4 -43128048#2 -43128048#1 -43128048#0 -354694307#1 -354694307#0 -30724791#1 150748003#0 136818406"/>
    </vehicle>
    <vehicle arrivalPos="max" depart="36033.00" departPos="base" id="h59016c2:1" type="default">
        <route edges="30724793#0 30724793#2 104799450#0 104799450#1 43111546#0 43111546#1 43111546#2 172326394 4289949#0 173156209#0 173156209#1 260318977 236091932 19800724 431896437 326639304 237119040 92161083 -280764573 23642622 236088097"/>
    </vehicle>
    <vehicle arrivalPos="max" depart="36033.00" departPos="base" id="carIn9935:1" type="default">
        <route edges="-326442767#0 -86437827 4274524#0 41732722#0 41732722#1 326445346 4289949#0 173156209#0 173156209#1 260318977 236091932 19800724 431896437 326639304 237119040 92161083 24395744 361440482"/>
    </vehicle>
    <vehicle arrivalPos="max" depart="36037.00" departPos="base" id="carIn32578:1" type="default">
        <route edges="-326442767#0 -86437827 4274524#0 41732722#0 41732722#1 326445346 4289949#0 173156209#0 173156209#1 260318977 236091932 19800724 431896437 326639304 237119040 92161083 24395744 361440482"/>
    </vehicle>
    <vehicle arrivalPos="max" depart="36041.00" departPos="base" id="h2851c1:3" type="default">
        <route edges="-431896440#1 150748005#0 236466786#0 431896441 236094252#0 150748003#0 136818406"/>
    </vehicle>
    <vehicle arrivalPos="max" depart="36041.00" departPos="base" id="h24451c1:1" type="default">
        <route edges="236094249 136818355 67847465#0 136818377 236094251 30926593#0 30926593#1 30926593#2 30926593#3 27475070 236094250 150748005#0 236466786#0 431896441 236094252#0 150748003#0 136818406"/>
    </vehicle>
    <vehicle arrivalPos="max" depart="36041.00" departPos="base" id="carIn24685:1" type="default">
        <route edges="236094249 136818355 67847465#0 136818377 236094251 30926593#0 30926593#1 30926593#2 30926593#3 27475070 236094250 150748005#0 236466786#0 431896441 236094252#0 150748003#0 136818406"/>
    </vehicle>
    <vehicle arrivalPos="max" depart="36042.00" departPos="base" id="carIn8426:1" type="default">
        <route edges="-326442767#0 -86437827 4274524#0 41732722#0 41732722#1 326445346 4289949#0 173156209#0 173156209#1 260318977 236091932 19800724 431896437 326639304 237119040 92161083 24395744 361440482"/>
    </vehicle>
    <vehicle arrivalPos="max" depart="36043.00" departPos="base" id="carIn26526:1" type="default">
        <route edges="236094249 136818355 67847465#0 136818377 236094251 30926593#0 30926593#1 30926593#2 30926593#3 27475070 236094250 150748005#0 236466786#0 431896441 236094252#0 150748003#0 136818406"/>
    </vehicle>
    <vehicle arrivalPos="max" depart="36047.00" departPos="base" id="randUni37358:1" type="random">
        <route edges="30724793#0 30724793#2 104799450#0 104799450#1 43111546#0 43111546#1 43111546#2 172326394 86437822 86437827 326442767#0"/>
    </vehicle>
    <vehicle arrivalPos="max" depart="36048.00" departPos="base" id="h32564c1:3" type="default">
        <route edges="30724793#0 30724793#2 104799450#0 104799450#1 43111546#0 43111546#1 43111546#2 172326394 -326638138#1 -4494944 -204125456 -4494945 -31178802 -129438607#2 -283921463#3 -283921463#1 -283921463#0 -332708628#0 -175846761 -207204932 -332708627#1 -332708627#0 -431896436#1 -431896434 -332708626#3 -332708626#1 -332708626#0 -332708621 -172326393#2 -22616468 -136818355 -236094249"/>
    </vehicle>
    <vehicle arrivalPos="max" depart="36051.00" departPos="base" id="h1305c1:1" type="default">
        <route edges="-136818406 42878236#0 136818380 354694307#1 -167373722 -30926598#10 -30926598#9 -30926598#7 -30926598#6 -30926598#5 -30926598#4 -30926598#3 -30926598#2 -30926598#1 -30926598#0 -43128047#6"/>
    </vehicle>
    <vehicle arrivalPos="max" depart="36052.00" departPos="base" id="carIn33625:1" type="default">
        <route edges="-396538258 -23642622 4274410 -36105254 -237119040 -326639304 -326639305 -19800724 -236091932 -260318977 -173156209#1 -173156209#0 -4289949#1 86437822 86437827 326442767#0"/>
    </vehicle>
    <vehicle arrivalPos="max" depart="36054.00" departPos="base" id="h41752c2:1" type="default">
        <route edges="30724793#0 30724793#2 104799450#0 104799450#1 43111546#0 43111546#1 43111546#2 172326394 -326638138#1 -4494944 -204125456 -4494945 -31178802 -129438607#2 -283921463#3 -283921463#1 -283921463#0 -332708628#0 -175846761 -207204932 -332708627#1 -332708627#0 -431896436#1 -431896434 -332708626#3 -332708626#1 -332708626#0 -332708621 -172326393#2 -22616468 -136818355 -236094249"/>
    </vehicle>
    <vehicle arrivalPos="max" depart="36054.00" departPos="base" id="carIn24620:1" type="default">
        <route edges="-326442767#0 -86437827 4274524#0 41732722#0 41732722#1 326445346 4289949#0 173156209#0 173156209#1 260318977 236091932 19800724 431896437 326639304 237119040 92161083 24395744 361440482"/>
    </vehicle>
    <vehicle arrivalPos="max" depart="36055.00" departPos="base" id="h53971c2:1" type="default">
        <route edges="236094249 136818355 67847465#0 136818377 236094251 30926593#0 30926593#1 30926593#2 30926593#3 27475070 236094250 150748005#0 236466786#0 431896441 236094252#0 -72146425#2 -72146425#0"/>
    </vehicle>
    <vehicle arrivalPos="max" depart="36056.00" departPos="base" id="h56465c1:1" type="default">
        <route edges="-326442767#0 -86437827 4274524#0 41732722#0 41732722#1 326445346 -76168994#1 -43111546#2 -43111546#1 -43111546#0 -104799450#1 -104799450#0 -30724793#2 -30724793#1"/>
    </vehicle>
    <vehicle arrivalPos="max" depart="36056.00" departPos="base" id="randUni17749:1" type="random">
        <route edges="366808352#0 141263765#0 136818377 236094251 30926593#0 30926593#1 30926593#2 30926593#3 27475070 236094250 150748005#0 236466786#0 431896441 236094252#0 150748003#0 136818406"/>
    </vehicle>
    <vehicle arrivalPos="max" depart="36058.00" departPos="base" id="h16880c2:1" type="default">
        <route edges="-326442767#0 -86437827 4274524#0 41732722#0 41732722#1 326445346 4289949#0 173156209#0 173156209#1 260318977 236091932 19800724 431896437 326639304 237119040 92161083 -280764573 -236088093#1 -89697011#3 -89697011#2 -89697011#0 -384069344 -43128048#22 -43128048#19 -43128048#18 -43128048#14 -43128048#13 -43128048#12 -43128048#10 -43128048#8 -43128048#7 -43128048#6 -43128048#4 -43128048#2 -43128048#1 -43128048#0 -354694307#1 -354694307#0 -30724791#1 150748003#0 136818406"/>
    </vehicle>
    <vehicle arrivalPos="max" depart="36060.00" departPos="base" id="h32256c1:3" type="default">
        <route edges="30724793#0 30724793#2 104799450#0 104799450#1 43111546#0 43111546#1 43111546#2 172326394 4289949#0 173156209#0 173156209#1 260318977 236091932 19800724 431896437 326639304 237119040 92161083 -280764573 23642622 236088097"/>
    </vehicle>
    <vehicle arrivalPos="max" arrivalSpeed="current" depart="36060.00" departPos="base" id="h61587c1:1" type="default">
        <route edges="-34835600 -43111543 -36105254 -237119040 -326639304 -326639305 -19800724 -236091932 -260318977 -173156209#1 -173156209#0 -4289949#1 86437822 86437827 326442767#0"/>
    </vehicle>
    <vehicle arrivalPos="max" depart="36063.00" departPos="base" id="h15967c1:3" type="default">
        <route edges="-326442767#0 -86437827 4274524#0 41732722#0 41732722#1 326445346 4289949#0 173156209#0 173156209#1 260318977 236091932 19800724 431896437 326639304 237119040 92161083 24395744 361440482"/>
    </vehicle>
    <vehicle arrivalPos="max" depart="36064.00" departPos="base" id="h28045c2:1" type="default">
        <route edges="172188196#4 31178802 42223973 204125456 4494944 326638138#0 -76168994#1 -43111546#2 -43111546#1 -43111546#0 -104799450#1 -104799450#0 -30724793#2 -30724793#1"/>
    </vehicle>
    <vehicle arrivalPos="max" depart="36065.00" departPos="base" id="carIn24694:1" type="default">
        <route edges="236094249 136818355 67847465#0 136818377 236094251 30926593#0 30926593#1 30926593#2 30926593#3 27475070 236094250 150748005#0 236466786#0 431896441 236094252#0 150748003#0 136818406"/>
    </vehicle>
    <vehicle arrivalPos="max" depart="36067.00" departPos="base" id="h10471c1:1" type="default">
        <route edges="-136818406 -150748003#1 -236094252#1 -431896441 -236466786#1 -150748005#1 -236094250 -27475070 -30926593#4 -30926593#2 -30926593#1 -30926593#0 -236094251 -136818377 -141263765#1 -366808352#1"/>
    </vehicle>
    <vehicle arrivalPos="max" depart="36068.00" departPos="base" id="h33167c1:3" type="default">
        <route edges="30724793#0 30724793#2 104799450#0 104799450#1 43111546#0 43111546#1 43111546#2 172326394 86437822 86437827"/>
    </vehicle>
    <vehicle arrivalPos="max" depart="36068.00" departPos="base" id="h60451c1:3" type="default">
        <route edges="30724793#0 30724793#2 104799450#0 104799450#1 43111546#0 43111546#1 43111546#2 172326394 4289949#0 173156209#0 173156209#1 260318977 236091932 19800724 431896437 326639304 237119040 92161083 -280764573 23642622 236088097"/>
    </vehicle>
    <vehicle arrivalPos="max" depart="36071.00" departPos="base" id="carIn26736:1" type="default">
        <route edges="-326442767#0 -86437827 4274524#0 41732722#0 41732722#1 326445346 4289949#0 173156209#0 173156209#1 260318977 236091932 19800724 431896437 326639304 237119040 92161083 24395744 361440482"/>
    </vehicle>
    <vehicle arrivalPos="max" depart="36072.00" departPos="base" id="h1301c1:3" type="default">
        <route edges="30724793#0 30724793#2 104799450#0 104799450#1 43111546#0 43111546#1 43111546#2 172326394 4289949#0 173156209#0 173156209#1 260318977 236091932 19800724 431896437 326639304 237119040 92161083 -280764573 23642622 236088097"/>
    </vehicle>
    <vehicle arrivalPos="max" depart="36072.00" departPos="base" id="carIn21209:1" type="default">
        <route edges="236094249 136818355 67847465#0 136818377 236094251 30926593#0 30926593#1 30926593#2 30926593#3 27475070 236094250 150748005#0 236466786#0 431896441 236094252#0 150748003#0 136818406"/>
    </vehicle>
    <vehicle arrivalPos="max" depart="36074.00" departPos="base" id="h35105c1:1" type="default">
        <route edges="30724793#0 30724793#2 104799450#0 104799450#1 43111546#0 43111546#1 43111546#2 172326394 4289949#0 173156209#0 173156209#1 260318977 236091932 19800724 431896437 326639304 237119040 92161083 -280764573 -236088093#1 -89697011#3 -89697011#2 -89697011#0 -384069344 -43128048#22 -43128048#19 -43128048#18 -43128048#14 -43128048#13 -43128048#12 -43128048#10 -43128048#8 -43128048#7 -43128048#6 -43128048#4 -43128048#2 -43128048#1 -43128048#0 -354694307#1 -354694307#0 -30724791#1 150748003#0 136818406"/>
    </vehicle>
    <vehicle arrivalPos="max" depart="36075.00" departPos="base" id="h48338c1:1" type="default">
        <route edges="172188196#4 31178802 42223973 204125456 4494944 326638138#0 4289949#0 173156209#0 173156209#1 260318977 236091932 19800724 431896437 326639304 237119040 92161083 24395744 361440482"/>
    </vehicle>
    <vehicle arrivalPos="max" depart="36075.00" departPos="base" id="h51941c1:1" type="default">
        <route edges="30724793#0 30724793#2 104799450#0 104799450#1 43111546#0 43111546#1 43111546#2 172326394 86437822 86437827 326442767#0"/>
    </vehicle>
    <vehicle arrivalPos="max" depart="36075.00" departPos="base" id="carIn642:1" type="default">
        <route edges="-326442767#0 -86437827 4274524#0 41732722#0 41732722#1 326445346 4289949#0 173156209#0 173156209#1 260318977 236091932 19800724 431896437 326639304 237119040 92161083 24395744 361440482"/>
    </vehicle>
    <vehicle arrivalPos="max" depart="36078.00" departPos="base" id="h9057c1:1" type="default">
        <route edges="-34835600 -43111543 -36105254 -237119040 -326639304 -326639305 -19800724 -236091932 -260318977 -173156209#1 -173156209#0 -4289949#1 -326638138#1 -4494944 -204125456 -4494945 -31178802 -172188196#5"/>
    </vehicle>
    <vehicle arrivalPos="max" depart="36078.00" departPos="base" id="carIn13588:1" type="default">
        <route edges="236094249 136818355 67847465#0 136818377 236094251 30926593#0 30926593#1 30926593#2 30926593#3 27475070 236094250 150748005#0 236466786#0 431896441 236094252#0 150748003#0 136818406"/>
    </vehicle>
    <vehicle arrivalPos="max" arrivalSpeed="current" depart="36079.00" departPos="base" id="h34089c1:1" type="default">
        <route edges="-431896434 -332708626#3 -332708626#1 -332708626#0 -332708621 -172326393#2 -22616468 -136818355 -236094249"/>
    </vehicle>
    <vehicle arrivalPos="max" depart="36081.00" departPos="base" id="h36099c1:1" type="default">
        <route edges="-34835600 -43111543 -36105254 -237119040 -326639304 -326639305 -19800724 -236091932 -260318977 -173156209#1 -173156209#0 -4289949#1 -326638138#1 -4494944 -204125456 -4494945 -31178802 -129438607#2 -283921463#3 -283921463#1 -283921463#0 -332708628#0 -175846761 -207204932 -332708627#1 -332708627#0 -431896436#1 -431896434 -332708626#3 -332708626#1 -332708626#0 -332708621 -172326393#2 -22616468 -136818355 -236094249"/>
    </vehicle>
    <vehicle arrivalPos="max" depart="36082.00" departPos="base" id="h12293c1:3" type="default">
        <route edges="-136818406 -150748003#1 -236094252#1 -431896441 -236466786#1 -150748005#1 -236094250 -27475070 -30926593#4 -30926593#2 -30926593#1 -30926593#0 -236094251 -136818377 -141263765#1 -366808352#1"/>
    </vehicle>
    <vehicle arrivalPos="max" depart="36087.00" departPos="base" id="h46600c1:1" type="default">
        <route edges="-136818406 -150748003#1 -236094252#1 -431896441 -236466786#1 -150748005#1 -236094250 -27475070 -30926593#4 -30926593#2 -30926593#1 -30926593#0 -236094251 -136818377 -141263765#1 -22616468 -136818355 -236094249"/>
    </vehicle>
    <vehicle arrivalPos="max" depart="36087.00" departPos="base" id="h60543c1:1" type="default">
        <route edges="30724793#0 30724793#2 104799450#0 104799450#1 43111546#0 43111546#1 43111546#2 172326394 4289949#0 173156209#0 173156209#1 260318977 236091932 19800724 431896437 326639304 237119040 92161083 -280764573 23642622 236088097"/>
    </vehicle>
    <vehicle arrivalPos="max" depart="36089.00" departPos="base" id="h2399c1:1" type="default">
        <route edges="-52902617#2 129438607#0 31178802 42223973 204125456 4494944 326638138#0 86437822 86437827"/>
    </vehicle>
    <vehicle arrivalPos="max" depart="36089.00" departPos="base" id="h58662c2:1" type="default">
        <route edges="30724793#0 30724793#2 104799450#0 104799450#1 43111546#0 43111546#1 43111546#2 172326394 4289949#0 173156209#0 173156209#1 260318977 236091932 19800724 431896437 326639304 237119040 92161083 -280764573 23642622 236088097"/>
    </vehicle>
    <vehicle arrivalPos="max" depart="36090.00" departPos="base" id="h17862c1:3" type="default">
        <route edges="-396538258 -23642622 4274410 -36105254 -237119040 -326639304 -326639305 -19800724 -236091932 -260318977 -173156209#1 -173156209#0 -4289949#1 -76168994#1 -43111546#2 -43111546#1 -43111546#0 -104799450#1 -104799450#0 -30724793#2 -30724793#1"/>
    </vehicle>
    <vehicle arrivalPos="max" depart="36092.00" departPos="base" id="h8710c1:1" type="default">
        <route edges="-34835600 -43111543 -36105254 -237119040 -326639304 -326639305 -19800724 -236091932 -260318977 -173156209#1 -173156209#0 -4289949#1 86437822 86437827"/>
    </vehicle>
    <vehicle arrivalPos="max" depart="36093.00" departPos="base" id="h56700c1:1" type="default">
        <route edges="30724793#0 30724793#2 104799450#0 104799450#1 43111546#0 43111546#1 43111546#2 172326394 4289949#0 173156209#0 173156209#1 260318977 236091932 19800724 431896437 326639304 237119040 92161083 -280764573 23642622 236088097"/>
    </vehicle>
    <vehicle arrivalPos="max" depart="36093.00" departPos="base" id="carIn15926:1" type="default">
        <route edges="-326442767#0 -86437827 4274524#0 41732722#0 41732722#1 326445346 4289949#0 173156209#0 173156209#1 260318977 236091932 19800724 431896437 326639304 237119040 92161083 24395744 361440482"/>
    </vehicle>
    <vehicle arrivalPos="max" depart="36093.00" departPos="base" id="carIn20915:1" type="default">
        <route edges="236094249 136818355 67847465#0 136818377 236094251 30926593#0 30926593#1 30926593#2 30926593#3 27475070 236094250 150748005#0 236466786#0 431896441 236094252#0 30724791#0 136818380 354694307#1 -167373722 -30926598#10 -30926598#9 -30926598#7 -30926598#6 -30926598#5 -30926598#4 -30926598#3 22959106#0 -22959106#1"/>
    </vehicle>
    <vehicle arrivalPos="max" depart="36095.00" departPos="base" id="randUni15109:1" type="random">
        <route edges="-326442767#0 -86437827 4274524#0 41732722#0 41732722#1 326445346 4289949#0 173156209#0 173156209#1 260318977 236091932 19800724 431896437 326639304 237119040 92161083 24395744 361440482"/>
    </vehicle>
    <vehicle arrivalPos="max" depart="36097.00" departPos="base" id="h13022c1:3" type="default">
        <route edges="30724793#0 30724793#2 104799450#0 104799450#1 43111546#0 43111546#1 43111546#2 172326394 -326638138#1 -4494944 -204125456 -4494945 -31178802 -129438607#2 -283921463#3 -283921463#1 -283921463#0 -332708628#0 -175846761 -207204932 -332708627#1 -332708627#0 -431896436#1 -431896434 -332708626#3 -332708626#1 -332708626#0 -332708621 -172326393#2 -22616468 -136818355 -236094249"/>
    </vehicle>
    <vehicle arrivalPos="max" depart="36101.00" departPos="base" id="h51750c1:1" type="default">