<?xml version="1.0" encoding="UTF-8"?>

<!-- generated on Wed Aug 14 16:38:46 2019 by Eclipse SUMO polyconvert Version 1.0.1
<configuration xmlns:xsi="http://www.w3.org/2001/XMLSchema-instance" xsi:noNamespaceSchemaLocation="http://sumo.dlr.de/xsd/polyconvertConfiguration.xsd">

    <input>
        <net-file value="/home/buse/.checkouts/git/python-evi/networks/paderborn-hynets/paderborn-hynets.net.xml"/>
        <osm-files value="build/paderborn/tmp/city.osm.xml"/>
        <type-file value="./etc/osmPolyconvert.typ.xml"/>
    </input>

    <output>
        <output-file value="build/paderborn/scenario/input/polygons.poly.xml"/>
    </output>

    <pruning>
        <prune.in-net value="true"/>
    </pruning>

    <processing>
        <all-attributes value="false"/>
        <ignore-errors value="true"/>
        <poi-layer-offset value="5"/>
    </processing>

</configuration>
-->

<additional xmlns:xsi="http://www.w3.org/2001/XMLSchema-instance" xsi:noNamespaceSchemaLocation="http://sumo.dlr.de/xsd/additional_file.xsd">
    <location netOffset="-474821.76,-5723127.50" convBoundary="-39938.01,-29916.75,23785.89,30941.61" origBoundary="8.056999,51.390098,8.979800,51.936987" projParameter="+proj=utm +zone=32 +ellps=WGS84 +datum=WGS84 +units=m +no_defs"/>

    <poly id="100500144" type="landuse" color="194,194,130" fill="1" layer="-3.00" shape="7657.343007,6262.562696 7685.992436,6278.334118 7692.983410,6266.231542 7721.234221,6262.685890 7717.203978,6236.018523 7720.869434,6215.185728 7718.449496,6210.645269 7660.862348,6197.754562 7652.853951,6243.126176 7657.343007,6262.562696"/>
    <poly id="101849667" type="building" color="255,230,230" fill="1" layer="-1.00" shape="9226.596871,5801.893392 9221.537064,5798.995480 9221.969948,5798.237826 9221.063230,5797.729091 9219.159951,5801.071661 9213.747174,5797.985802 9215.293145,5795.267183 9214.365628,5794.736271 9218.900651,5786.814301 9219.717376,5787.267711 9221.146495,5784.738535 9222.046271,5785.236171 9224.512768,5780.835247 9223.599138,5780.326533 9225.014514,5777.819645 9224.322329,5777.421449 9230.438023,5766.814130 9236.764630,5770.464331 9236.379789,5771.121735 9237.120514,5771.575389 9239.931787,5766.950947 9239.156446,5766.475159 9242.068867,5761.060749 9243.196965,5761.657763 9244.709155,5759.172818 9245.622154,5759.481345 9248.040355,5755.091708 9247.036727,5754.527665 9248.500135,5751.909414 9247.690281,5751.444855 9250.775381,5746.007661 9251.599054,5746.472177 9253.090068,5743.842718 9258.184458,5746.740553 9257.792844,5747.442464 9258.748002,5747.973297 9260.616956,5744.686460 9265.905185,5747.706031 9264.407256,5750.335508 9265.265578,5750.833282 9260.703094,5758.844271 9259.837898,5758.357641 9258.388094,5760.909115 9257.536752,5760.433564 9255.063167,5764.790006 9255.914544,5765.276678 9254.402912,5767.939567 9255.261197,5768.426217 9250.884274,5776.114097 9249.956757,5775.583178 9248.355804,5778.402056 9243.109157,5775.415738 9243.603878,5774.546672 9242.530986,5773.927240 9239.658832,5778.963381 9240.475591,5779.427916 9237.383579,5784.854017 9236.566820,5784.389482 9235.123874,5786.918697 9234.251737,5786.420972 9231.771276,5790.777448 9232.636503,5791.275194 9231.193597,5793.815532 9232.010390,5794.291188 9228.925270,5799.706151 9228.108513,5799.241617 9226.596871,5801.893392"/>
    <poly id="101990588" type="building" color="255,230,230" fill="1" layer="-1.00" shape="8087.306800,5267.539954 8090.290507,5263.047749 8093.673072,5257.986981 8094.890135,5256.214488 8101.656808,5260.829379 8099.532344,5263.995171 8101.055984,5265.013221 8099.543415,5267.264952 8098.012828,5266.235804 8094.073276,5272.099227 8087.306800,5267.539954"/>
    <poly id="101990591" type="building" color="255,230,230" fill="1" layer="-1.00" shape="8057.513937,5239.892018 8058.792351,5237.874628 8057.545884,5237.089209 8058.611224,5235.406197 8059.857690,5236.191617 8062.167124,5232.558064 8068.911997,5236.839331 8064.265714,5244.173255 8057.513937,5239.892018"/>
    <poly id="101990594" type="building" color="255,230,230" fill="1" layer="-1.00" shape="8112.293464,5283.949032 8116.212336,5278.096815 8119.340643,5273.448432 8119.636414,5273.047045 8126.430605,5277.639633 8125.158784,5279.568009 8127.111765,5280.862661 8122.298963,5288.008025 8120.359690,5286.679963 8119.108415,5288.552662 8112.293464,5283.949032"/>
    <poly id="101990595" type="building" color="255,230,230" fill="1" layer="-1.00" shape="8077.556109,5255.094307 8082.279390,5248.049301 8082.472001,5247.792846 8089.287178,5252.440922 8084.371168,5259.709012 8077.853951,5255.304612 8077.556109,5255.094307"/>
    <poly id="101990597" type="building" color="255,230,230" fill="1" layer="-1.00" shape="8102.884237,5272.325196 8101.667400,5274.164417 8099.686469,5272.780895 8100.882613,5270.952865 8100.002987,5270.344143 8102.526189,5266.576422 8104.888031,5268.214459 8107.294296,5264.602842 8114.109578,5269.295438 8112.088345,5272.338536 8110.527479,5274.612670 8109.200459,5276.563480 8102.884237,5272.325196"/>
    <poly id="103537260" type="building" color="255,230,230" fill="1" layer="-1.00" shape="8884.717722,5167.496370 8889.349413,5157.393923 8894.781723,5159.834307 8897.321544,5161.016144 8892.710643,5171.140760 8884.717722,5167.496370"/>
    <poly id="103537261" type="building" color="255,230,230" fill="1" layer="-1.00" shape="8895.271684,5138.223032 8899.834287,5128.109697 8902.609317,5129.368630 8907.674986,5131.676749 8903.119209,5141.767812 8895.271684,5138.223032"/>
    <poly id="103537262" type="building" color="255,230,230" fill="1" layer="-1.00" shape="8891.161787,5147.289460 8895.271684,5138.223032 8903.119209,5141.767812 8899.846369,5148.985310 8899.507310,5148.841820 8898.684027,5150.679577 8891.161787,5147.289460"/>
    <poly id="103537263" type="building" color="255,230,230" fill="1" layer="-1.00" shape="8887.086420,5156.344658 8891.161787,5147.289460 8898.684027,5150.679577 8899.023193,5150.856432 8895.922398,5157.850941 8895.714881,5157.784880 8894.781723,5159.834307 8889.349413,5157.393923 8887.086420,5156.344658"/>
    <poly id="103537889" type="building" color="255,230,230" fill="1" layer="-1.00" shape="8916.865832,5095.345502 8916.927521,5095.189597 8919.981125,5088.540031 8918.700851,5087.954701 8920.622139,5083.744462 8927.881617,5087.057617 8926.111309,5090.944834 8927.606117,5091.629571 8925.019203,5097.287788 8922.320244,5096.050841 8921.654658,5097.509943 8917.841628,5095.798351 8916.865832,5095.345502"/>
    <poly id="103537890" type="building" color="255,230,230" fill="1" layer="-1.00" shape="8902.567042,5120.549165 8907.150908,5110.591473 8915.185327,5114.224643 8912.268943,5120.562360 8911.936756,5120.407726 8910.241801,5124.083391 8902.567042,5120.549165"/>
    <poly id="103537891" type="building" color="255,230,230" fill="1" layer="-1.00" shape="8907.150908,5110.591473 8911.762002,5100.500236 8919.319063,5103.957003 8917.631079,5107.654887 8918.087827,5107.864729 8915.185327,5114.224643 8907.150908,5110.591473"/>
    <poly id="103537892" type="building" color="255,230,230" fill="1" layer="-1.00" shape="8931.307201,5075.746817 8928.953715,5080.937164 8923.645827,5078.529708 8926.740373,5071.713186 8930.833511,5072.422920 8932.491297,5067.924367 8931.190612,5067.439196 8932.629174,5063.530805 8941.353304,5066.739167 8941.270955,5066.917381 8941.097987,5066.851207 8938.083654,5074.979836 8939.128339,5075.365736 8938.176099,5077.937941 8938.556623,5078.081300 8938.440224,5078.415329 8931.307201,5075.746817"/>
    <poly id="103537893" type="building" color="255,230,230" fill="1" layer="-1.00" shape="8949.216291,5060.029654 8950.952328,5056.220408 8951.270625,5056.352846 8951.469625,5055.918455 8949.767218,5055.145404 8951.235585,5051.904232 8952.799574,5052.610998 8952.991700,5052.187751 8944.348076,5048.233949 8944.238265,5048.467860 8944.701927,5048.677683 8940.509733,5057.989013 8942.489084,5058.927997 8943.058655,5057.691642 8949.411529,5060.573995 8949.589976,5060.195279 8949.216291,5060.029654"/>
    <poly id="103537962" type="building" color="255,230,230" fill="1" layer="-1.00" shape="8947.919821,5028.636939 8948.008366,5028.236269 8944.841056,5027.490176 8946.743061,5019.420740 8949.398626,5020.046140 8950.618777,5014.826083 8959.394579,5016.888763 8958.085695,5022.453879 8957.407993,5022.300353 8955.921879,5028.622322 8959.837921,5030.122298 8960.139467,5029.342802 8964.145446,5030.875857 8960.725820,5039.773179 8960.241499,5039.585666 8960.385361,5039.195940 8954.864266,5037.111669 8951.847664,5035.953580 8951.104510,5036.934690 8948.703737,5036.030424 8951.197729,5029.393799 8947.919821,5028.636939"/>
    <poly id="103538615" type="building" color="255,230,230" fill="1" layer="-1.00" shape="8633.370175,5123.304456 8633.076340,5122.204360 8633.488611,5121.491211 8625.222315,5116.747068 8628.269525,5110.375388 8633.697316,5100.848428 8640.530539,5104.774268 8641.382544,5103.292273 8642.545666,5103.966891 8642.188418,5104.602006 8645.248553,5106.382589 8645.527728,5107.226933 8644.428454,5109.165732 8645.716174,5109.906674 8640.350123,5119.299957 8643.001681,5120.814955 8639.573275,5126.843099 8633.370175,5123.304456"/>
    <poly id="103538616" type="building" color="255,230,230" fill="1" layer="-1.00" shape="8606.708598,5107.910394 8611.665478,5098.084668 8611.056365,5097.775257 8613.349261,5093.174416 8623.509999,5098.223733 8618.519313,5108.283118 8619.709822,5108.879788 8617.478643,5113.335840 8606.708598,5107.910394"/>
    <poly id="103539088" type="building" color="255,230,230" fill="1" layer="-1.00" shape="8669.923523,5198.902062 8661.515265,5195.070313 8664.630043,5188.231317 8668.443090,5189.942719 8670.432720,5185.576453 8660.771836,5181.170470 8662.205394,5177.918205 8668.136041,5180.579150 8670.969274,5174.274927 8676.000346,5176.549562 8677.132239,5174.021206 8680.447190,5175.556296 8672.839230,5192.464108 8671.460331,5195.527121 8669.923523,5198.902062"/>
    <poly id="103539089" type="building" color="255,230,230" fill="1" layer="-1.00" shape="8622.159517,5154.159803 8628.216976,5144.908815 8635.446643,5149.634119 8635.089180,5150.202504 8636.564193,5151.165265 8638.069980,5148.869233 8640.943847,5150.750520 8633.744997,5161.740241 8622.159517,5154.159803"/>
    <poly id="103539090" type="building" color="255,230,230" fill="1" layer="-1.00" shape="8643.640189,5165.934090 8649.489826,5156.516981 8660.423131,5163.309967 8654.573482,5172.727064 8643.640189,5165.934090"/>
    <poly id="103539092" type="building" color="255,230,230" fill="1" layer="-1.00" shape="8676.964074,5209.222321 8682.432509,5197.337452 8684.979236,5198.508038 8686.557368,5195.088479 8690.349600,5196.777721 8688.723277,5200.253045 8690.280348,5200.959752 8686.211604,5209.803779 8684.798115,5212.855780 8684.542083,5212.745399 8676.964074,5209.222321"/>
    <poly id="103539093" type="building" color="255,230,230" fill="1" layer="-1.00" shape="8681.436416,5192.791884 8684.784016,5185.295952 8694.506843,5189.635048 8691.173014,5197.119806 8690.349600,5196.777721 8686.557368,5195.088479 8681.436416,5192.791884"/>
    <poly id="103539890" type="building" color="255,230,230" fill="1" layer="-1.00" shape="8713.044449,5214.398412 8717.147097,5205.342982 8717.603808,5205.541684 8718.235134,5204.193884 8722.408123,5206.104344 8721.790652,5207.463221 8728.365020,5210.478035 8724.248464,5219.511258 8713.044449,5214.398412"/>
    <poly id="103539891" type="building" color="255,230,230" fill="1" layer="-1.00" shape="8698.240014,5202.857818 8698.761321,5201.677201 8701.416264,5195.785085 8710.889969,5200.024930 8707.720620,5207.097633 8702.668971,5204.856400 8698.240014,5202.857818"/>
    <poly id="103540996" type="building" color="255,230,230" fill="1" layer="-1.00" shape="8707.758493,5167.904212 8716.805277,5172.590335 8720.753752,5164.981248 8711.700085,5160.306263 8707.758493,5167.904212"/>
    <poly id="103540997" type="building" color="255,230,230" fill="1" layer="-1.00" shape="8746.734510,5192.189502 8750.219575,5184.437364 8750.627808,5184.602862 8751.176623,5183.377674 8754.809695,5185.000753 8754.205997,5186.348458 8760.178118,5189.031620 8756.747995,5196.683476 8746.734510,5192.189502"/>
    <poly id="103540998" type="building" color="255,230,230" fill="1" layer="-1.00" shape="8730.155595,5181.077224 8733.599690,5173.480914 8743.350390,5177.897865 8742.156782,5180.582112 8739.913266,5185.516389 8730.155595,5181.077224"/>
    <poly id="103540999" type="building" color="255,230,230" fill="1" layer="-1.00" shape="8692.083242,5158.479625 8701.521930,5162.552739 8705.986765,5152.250474 8696.554971,5148.177329 8692.083242,5158.479625"/>
    <poly id="103541476" type="building" color="255,230,230" fill="1" layer="-1.00" shape="8812.875044,5272.340771 8810.469470,5276.319066 8806.086859,5273.664051 8805.289573,5274.979014 8805.012601,5274.801964 8808.813586,5268.572530 8809.519801,5269.003989 8812.420363,5264.245560 8812.184922,5264.090619 8813.319028,5262.229595 8815.153792,5263.346947 8814.927101,5263.759190 8821.836764,5267.929707 8817.939854,5274.415244 8817.486147,5275.139634 8812.875044,5272.340771"/>
    <poly id="103541477" type="building" color="255,230,230" fill="1" layer="-1.00" shape="8809.859017,5230.866164 8811.206363,5228.704160 8812.491954,5226.675817 8810.234695,5225.259548 8813.678860,5219.787560 8823.725675,5226.072171 8817.662418,5235.745573 8810.281425,5231.142839 8809.859017,5230.866164"/>
    <poly id="103541478" type="building" color="255,230,230" fill="1" layer="-1.00" shape="8821.516374,5243.707420 8823.269604,5240.988011 8822.577134,5240.534262 8823.623511,5239.318591 8824.032026,5239.573068 8826.665403,5235.516189 8830.411603,5237.950847 8829.675917,5239.087657 8834.239177,5242.042396 8832.376031,5244.962350 8829.928213,5248.707214 8826.632139,5246.571386 8826.439635,5246.872299 8821.516374,5243.707420"/>
    <poly id="103541479" type="building" color="255,230,230" fill="1" layer="-1.00" shape="8788.057524,5222.228568 8790.525909,5218.439130 8787.977627,5216.779136 8789.909713,5213.814454 8787.797695,5212.442210 8792.177482,5205.699280 8795.833674,5208.067474 8797.504525,5205.515152 8800.454454,5207.440770 8803.149802,5203.316946 8807.685506,5206.282873 8804.990120,5210.395572 8807.801555,5212.232670 8802.919638,5219.689013 8800.101295,5217.851941 8794.525138,5226.433850 8788.057524,5222.228568"/>
    <poly id="103541480" type="building" color="255,230,230" fill="1" layer="-1.00" shape="8784.263518,5275.258618 8787.123244,5270.700500 8790.384481,5272.747441 8796.406471,5263.163115 8802.721214,5267.124223 8793.839487,5281.266655 8784.263518,5275.258618"/>
    <poly id="103541481" type="building" color="255,230,230" fill="1" layer="-1.00" shape="8752.956255,5239.703902 8755.424026,5235.736499 8751.435832,5233.269319 8755.834978,5226.125908 8762.059573,5229.964919 8761.104196,5231.536205 8763.832137,5233.195601 8760.601990,5238.589074 8758.017724,5242.857143 8757.685397,5242.658032 8752.956255,5239.703902"/>
    <poly id="103541482" type="building" color="255,230,230" fill="1" layer="-1.00" shape="8774.715431,5258.707022 8779.150294,5251.919414 8788.180069,5257.817997 8783.752109,5264.605576 8774.715431,5258.707022"/>
    <poly id="103541483" type="building" color="255,230,230" fill="1" layer="-1.00" shape="8824.060514,5278.199060 8827.683088,5272.348360 8828.006302,5271.869074 8835.851010,5276.726133 8831.919072,5283.067189 8824.060514,5278.199060"/>
    <poly id="103541484" type="building" color="255,230,230" fill="1" layer="-1.00" shape="8764.314217,5245.439158 8765.861276,5243.076298 8765.785050,5243.009815 8770.611791,5235.609224 8775.791482,5238.995656 8776.465327,5237.970257 8778.965161,5239.608159 8779.116492,5239.396353 8779.497369,5239.650917 8775.915093,5245.134499 8775.804353,5245.079250 8773.652473,5248.445038 8771.325716,5246.906672 8769.895545,5249.091201 8764.314217,5245.439158"/>
    <poly id="103548172" type="farm" color="242,242,204" fill="1" layer="-3.00" shape="8038.878333,6478.238779 8046.351385,6481.794619 8044.291276,6485.438464 8037.094482,6481.859444 8038.878333,6478.238779"/>
    <poly id="103837392" type="building" color="255,230,230" fill="1" layer="-1.00" shape="8332.266265,6562.765969 8322.572879,6560.340435 8327.153878,6541.996316 8323.579322,6541.096272 8325.576792,6533.126352 8374.071700,6545.309755 8372.074158,6553.279656 8336.847334,6544.432981 8332.266265,6562.765969"/>
    <poly id="103870588" type="parking" color="184,184,179" fill="1" layer="-1.00" shape="9001.613670,5044.023897 9060.295344,5076.389620 9014.049988,5164.121891 9009.336597,5161.745805 9007.516421,5165.177159 8958.177174,5139.021341 9001.613670,5044.023897"/>
    <poly id="103969989" type="building" color="255,230,230" fill="1" layer="-1.00" shape="7402.412752,5754.140844 7410.073121,5735.907389 7415.235095,5738.069088 7407.595477,5756.313584 7402.412752,5754.140844"/>
    <poly id="103969990" type="building" color="255,230,230" fill="1" layer="-1.00" shape="7418.893163,5713.421317 7419.942019,5711.070915 7420.378009,5711.269573 7421.063494,5709.721223 7416.025743,5707.525715 7420.275041,5697.723528 7421.742082,5698.363430 7422.783800,5695.946322 7428.375164,5698.384570 7427.340315,5700.790530 7434.108011,5703.725127 7434.498789,5702.856248 7434.727147,5702.955542 7428.264565,5718.003894 7424.119727,5716.261231 7424.620072,5715.113920 7422.343240,5714.076481 7422.048608,5714.778195 7418.893163,5713.421317"/>
    <poly id="103969999" type="building" color="255,230,230" fill="1" layer="-1.00" shape="7381.628089,5693.021742 7380.846864,5694.848482 7379.220666,5694.142422 7384.860842,5681.032109 7404.097756,5689.194447 7403.926551,5689.628802 7399.169951,5700.556097 7381.628089,5693.021742"/>
    <poly id="103970001" type="building" color="255,230,230" fill="1" layer="-1.00" shape="7408.441687,5704.293728 7406.920443,5707.880323 7407.342537,5708.056785 7407.212358,5708.368655 7404.070762,5707.022860 7404.344703,5706.332340 7402.068059,5705.350520 7401.581459,5706.475541 7397.394951,5704.677437 7399.169951,5700.556097 7403.926551,5689.628802 7404.148002,5689.728118 7403.771047,5690.596951 7410.656425,5693.586711 7411.684319,5691.169649 7419.988409,5694.810614 7414.717930,5706.974228 7408.441687,5704.293728"/>
    <poly id="104799454" type="parking" color="184,184,179" fill="1" layer="-1.00" shape="7665.973229,6440.004134 7669.135261,6461.313750 7621.600635,6461.779321 7621.254618,6439.781495 7665.973229,6440.004134"/>
    <poly id="105299330" type="building" color="255,230,230" fill="1" layer="-1.00" shape="7430.991069,5752.583240 7426.042970,5764.067278 7411.131768,5757.913793 7417.286073,5743.645032 7417.569782,5743.766373 7416.370497,5746.562180 7419.809397,5747.973667 7420.391826,5746.592507 7427.338714,5749.415245 7426.777128,5750.829696 7430.991069,5752.583240"/>
    <poly id="105299334" type="building" color="255,230,230" fill="1" layer="-1.00" shape="7460.937239,5778.503075 7466.392153,5765.727158 7466.495088,5765.526604 7474.376540,5768.879973 7474.445163,5768.746270 7477.102278,5769.871372 7477.040602,5770.016173 7485.081185,5773.435732 7479.674323,5786.133607 7479.530284,5786.434402 7477.793466,5785.695333 7477.512454,5786.341387 7471.589258,5783.815275 7471.856451,5783.169270 7460.937239,5778.503075"/>
    <poly id="105299339" type="building" color="255,230,230" fill="1" layer="-1.00" shape="7442.144355,5770.739347 7447.729762,5757.751636 7466.392153,5765.727158 7460.937239,5778.503075 7442.144355,5770.739347"/>
    <poly id="105299341" type="building" color="255,230,230" fill="1" layer="-1.00" shape="7437.378001,5696.395450 7432.340323,5694.222169 7437.096766,5683.228175 7442.134454,5685.401461 7437.378001,5696.395450"/>
    <poly id="105299344" type="building" color="255,230,230" fill="1" layer="-1.00" shape="7405.982375,5684.805798 7410.752589,5673.811731 7415.817974,5675.996015 7411.027023,5686.990151 7405.982375,5684.805798"/>
    <poly id="105517710" type="leisure" color="207,245,201" fill="1" layer="-2.00" shape="7902.156158,5120.795284 7906.765416,5124.883456 7922.741695,5139.020237 7907.426303,5154.431895 7900.356905,5150.296539 7898.369722,5149.135553 7878.536732,5128.717118 7873.308032,5123.340964 7887.843135,5110.111756 7899.930257,5122.571278 7902.156158,5120.795284"/>
    <poly id="108953945" type="building" color="255,230,230" fill="1" layer="-1.00" shape="9244.184492,6113.571517 9241.876547,6122.187106 9254.101578,6125.451673 9256.409542,6116.836088 9244.184492,6113.571517"/>
    <poly id="111312518" type="building" color="255,230,230" fill="1" layer="-1.00" shape="9204.564970,6044.530191 9194.265792,6051.691916 9205.836104,6068.493709 9212.578565,6063.945774 9209.753728,6059.861884 9213.469436,6057.280977 9204.564970,6044.530191"/>
    <poly id="111312523" type="building" color="255,230,230" fill="1" layer="-1.00" shape="9053.569484,6203.874981 9060.611392,6219.623231 9099.313973,6202.394300 9092.272163,6186.645997 9053.569484,6203.874981"/>
    <poly id="111312525" type="building" color="255,230,230" fill="1" layer="-1.00" shape="9211.046190,6372.036519 9210.628724,6373.283487 9206.008968,6371.729939 9203.865083,6371.013811 9205.425466,6366.359940 9203.772567,6365.797963 9203.916269,6365.363756 9208.058861,6366.763107 9209.626157,6362.109217 9214.245921,6363.662768 9214.034542,6364.542062 9215.652828,6365.081909 9216.063493,6363.868329 9220.468883,6365.355834 9218.682551,6370.655481 9216.089131,6369.785064 9214.891362,6373.325600 9211.046190,6372.036519"/>
    <poly id="111312527" type="building" color="255,230,230" fill="1" layer="-1.00" shape="9016.093199,6232.911723 9013.759042,6246.143067 9024.646230,6248.054502 9026.973505,6234.823185 9016.093199,6232.911723"/>
    <poly id="111312528" type="building" color="255,230,230" fill="1" layer="-1.00" shape="9169.350353,6074.993329 9155.350327,6085.014073 9163.087821,6095.766550 9177.087832,6085.745827 9169.350353,6074.993329"/>
    <poly id="111312529" type="building" color="255,230,230" fill="1" layer="-1.00" shape="9183.074537,6326.492277 9200.239975,6332.343552 9203.436719,6323.024449 9186.271253,6317.173162 9183.074537,6326.492277"/>
    <poly id="111312530" type="building" color="255,230,230" fill="1" layer="-1.00" shape="9215.374583,6196.431300 9225.869636,6203.226895 9230.084172,6196.751780 9219.596020,6189.956154 9215.374583,6196.431300"/>
    <poly id="111312532" type="building" color="255,230,230" fill="1" layer="-1.00" shape="9143.249981,6190.543113 9148.858517,6198.822170 9155.600751,6194.274157 9149.992222,6185.995093 9143.249981,6190.543113"/>
    <poly id="111312533" type="amenity" color="237,199,199" fill="1" layer="-1.00" shape="9218.984051,6031.505365 9229.554991,6046.897901 9241.805594,6038.517802 9236.308456,6030.516337 9233.922711,6032.014204 9229.028628,6024.644785 9218.984051,6031.505365"/>
    <poly id="111312533#1" type="building" color="255,230,230" fill="1" layer="-1.00" shape="9218.984051,6031.505365 9229.554991,6046.897901 9241.805594,6038.517802 9236.308456,6030.516337 9233.922711,6032.014204 9229.028628,6024.644785 9218.984051,6031.505365"/>
    <poly id="111312534" type="building" color="255,230,230" fill="1" layer="-1.00" shape="9217.911603,6413.009872 9216.706900,6416.539307 9211.699968,6414.875761 9216.738331,6400.279083 9221.447866,6401.832357 9221.913198,6400.429533 9226.629710,6402.005033 9222.386102,6414.519403 9217.911603,6413.009872"/>
    <poly id="111312535" type="building" color="255,230,230" fill="1" layer="-1.00" shape="9206.316635,6207.125818 9216.575871,6213.632973 9221.539270,6205.843104 9211.280025,6199.335939 9206.316635,6207.125818"/>
    <poly id="111312537" type="building" color="255,230,230" fill="1" layer="-1.00" shape="9094.642399,6180.321235 9103.972906,6194.505189 9115.058927,6187.240672 9110.685588,6180.692723 9115.697641,6177.373572 9110.719983,6169.804338 9094.642399,6180.321235"/>
    <poly id="111312538" type="building" color="255,230,230" fill="1" layer="-1.00" shape="9152.438541,6323.152899 9145.261360,6345.119096 9162.418988,6350.692221 9160.598983,6356.247798 9171.470305,6359.783387 9175.698675,6346.846394 9162.178653,6342.451704 9166.947553,6327.866956 9152.438541,6323.152899"/>
    <poly id="111312540" type="building" color="255,230,230" fill="1" layer="-1.00" shape="9226.150961,6172.040387 9220.218648,6181.490470 9229.273144,6187.156203 9235.205468,6177.706131 9226.150961,6172.040387"/>
    <poly id="111312541" type="building" color="255,230,230" fill="1" layer="-1.00" shape="9141.788615,6089.461425 9134.852842,6094.021192 9144.432991,6108.482471 9151.368753,6103.922717 9141.788615,6089.461425"/>
    <poly id="111312542" type="building" color="255,230,230" fill="1" layer="-1.00" shape="9187.416776,6057.496980 9179.744711,6063.015497 9188.557631,6075.210439 9196.229686,6069.691935 9187.416776,6057.496980"/>
    <poly id="111312543" type="building" color="255,230,230" fill="1" layer="-1.00" shape="9145.567850,6172.073500 9140.444372,6164.260021 9141.747419,6163.410618 9141.094823,6162.411729 9147.506544,6158.198412 9148.173028,6159.219502 9150.131022,6157.934267 9152.902579,6156.123722 9158.012052,6163.881649 9150.166406,6169.067109 9145.567850,6172.073500"/>
    <poly id="111312544" type="building" color="255,230,230" fill="1" layer="-1.00" shape="9224.186520,6258.641191 9228.722416,6248.939726 9220.509805,6245.117553 9221.456779,6243.090383 9214.890818,6240.030416 9213.683082,6242.614505 9205.678058,6238.902918 9207.935720,6234.080013 9202.608239,6231.605597 9199.842766,6237.508931 9196.701630,6236.050803 9195.212555,6239.236366 9192.230563,6237.855589 9190.144468,6242.310936 9198.447058,6246.177262 9197.911787,6247.313385 9224.186520,6258.641191"/>
    <poly id="111312544#1" type="shop" color="237,199,255" fill="1" layer="-1.00" shape="9224.186520,6258.641191 9228.722416,6248.939726 9220.509805,6245.117553 9221.456779,6243.090383 9214.890818,6240.030416 9213.683082,6242.614505 9205.678058,6238.902918 9207.935720,6234.080013 9202.608239,6231.605597 9199.842766,6237.508931 9196.701630,6236.050803 9195.212555,6239.236366 9192.230563,6237.855589 9190.144468,6242.310936 9198.447058,6246.177262 9197.911787,6247.313385 9224.186520,6258.641191"/>
    <poly id="111312548" type="building" color="255,230,230" fill="1" layer="-1.00" shape="9168.966448,6310.966478 9169.780998,6308.583819 9174.117294,6310.049259 9176.417112,6303.291007 9161.803670,6298.343697 9158.689359,6307.495738 9168.966448,6310.966478"/>
    <poly id="111312550" type="building" color="255,230,230" fill="1" layer="-1.00" shape="9214.871086,6037.368464 9204.564970,6044.530191 9213.469436,6057.280977 9223.775538,6050.119269 9214.871086,6037.368464"/>
    <poly id="111312551" type="building" color="255,230,230" fill="1" layer="-1.00" shape="9231.607018,6381.191457 9248.250644,6385.954606 9252.213966,6372.162133 9235.570298,6367.398972 9231.607018,6381.191457"/>
    <poly id="111312552" type="building" color="255,230,230" fill="1" layer="-1.00" shape="9137.057834,6400.587540 9146.435553,6377.635611 9156.493491,6381.752089 9152.154222,6392.376110 9153.164183,6392.795530 9152.053657,6395.512788 9151.043732,6395.104490 9147.122642,6404.703977 9137.057834,6400.587540"/>
    <poly id="111312553" type="building" color="255,230,230" fill="1" layer="-1.00" shape="9003.289865,6202.245387 9001.533854,6199.715241 9003.401912,6198.407995 9001.500106,6195.655880 9004.767440,6193.354302 9004.628626,6193.154554 9009.343134,6189.713911 9009.523579,6189.969134 9012.790955,6187.678683 9014.144375,6189.620666 9016.363996,6188.067617 9019.827576,6193.105831 9017.594175,6194.670044 9018.940683,6196.612050 9015.666401,6198.902520 9015.909307,6199.246518 9011.146371,6202.665067 9010.965927,6202.409843 9007.746850,6204.677897 9005.144141,6200.949307 9003.289865,6202.245387"/>
    <poly id="111312554" type="building" color="255,230,230" fill="1" layer="-1.00" shape="9183.479392,6406.212312 9183.226042,6406.924913 9179.775120,6405.779190 9180.007780,6405.077776 9175.713088,6403.634443 9177.594844,6397.945213 9178.189596,6398.143519 9179.243352,6394.948208 9178.655508,6394.749880 9180.735707,6388.459443 9192.070509,6392.216042 9187.034114,6407.413318 9183.479392,6406.212312"/>
    <poly id="111312555" type="building" color="255,230,230" fill="1" layer="-1.00" shape="9014.778379,6182.656365 9019.747087,6189.547101 9029.702334,6183.020061 9024.795347,6175.984534 9014.778379,6182.656365"/>
    <poly id="111312557" type="building" color="255,230,230" fill="1" layer="-1.00" shape="9130.054840,6136.410639 9135.204866,6143.868124 9143.098154,6138.448931 9140.224693,6134.287381 9137.948135,6130.991438 9130.054840,6136.410639"/>
    <poly id="111312558" type="building" color="255,230,230" fill="1" layer="-1.00" shape="9002.089943,6239.540750 9004.650793,6230.223559 9014.075614,6232.829216 9013.324300,6235.523108 9014.907821,6235.974027 9014.511652,6237.387770 9014.698361,6237.442781 9014.069975,6239.691406 9012.279057,6239.196664 9011.480026,6242.090903 9008.644990,6241.310343 9008.044064,6243.503271 9004.884076,6242.645902 9005.478093,6240.452995 9002.089943,6239.540750"/>
    <poly id="111312559" type="building" color="255,230,230" fill="1" layer="-1.00" shape="9177.972276,6299.170994 9189.204782,6303.283810 9193.561054,6291.436368 9182.328525,6287.323541 9177.972276,6299.170994"/>
    <poly id="111312560" type="building" color="255,230,230" fill="1" layer="-1.00" shape="8972.394098,6238.735226 8968.313136,6232.920500 8969.726245,6231.937237 8967.477396,6228.685767 8975.542586,6223.110051 8978.187079,6226.938588 8979.641607,6225.944073 8982.619207,6230.238659 8983.237069,6231.170909 8973.400602,6238.064681 8972.394098,6238.735226"/>
    <poly id="111312561" type="building" color="255,230,230" fill="1" layer="-1.00" shape="9071.171254,6229.354462 9077.542852,6247.240269 9084.340132,6244.827376 9082.667066,6240.128180 9089.298731,6237.771432 9084.607179,6224.595907 9071.171254,6229.354462"/>