<?xml version="1.0" encoding="UTF-8"?>

<!-- generated on 2018-09-24T15:00:00 CEST by Netedit Version 0.32.0
<?xml version="1.0" encoding="UTF-8"?>

<configuration xmlns:xsi="http://www.w3.org/2001/XMLSchema-instance" xsi:noNamespaceSchemaLocation="http://sumo.dlr.de/xsd/netconvertConfiguration.xsd">

    <input>
        <sumo-net-file value="paderborn-hynets.net.xml"/>
    </input>

    <output>
        <output-file value="paderborn-hynets.net.xml"/>
        <output.street-names value="true"/>
    </output>

    <processing>
        <no-turnarounds value="true"/>
        <offset.disable-normalization value="true"/>
        <lefthand value="false"/>
        <junctions.corner-detail value="0"/>
        <junctions.internal-link-detail value="10"/>
        <rectangular-lane-cut value="false"/>
        <walkingareas value="false"/>
    </processing>

</configuration>
-->

<net version="0.27" junctionLinkDetail="10" xmlns:xsi="http://www.w3.org/2001/XMLSchema-instance" xsi:noNamespaceSchemaLocation="http://sumo.dlr.de/xsd/net_file.xsd">

    <location netOffset="-474821.76,-5723127.50" convBoundary="7400.51,4676.80,9242.85,6601.00" origBoundary="8.350565,51.639068,8.932897,51.833637" projParameter="+proj=utm +zone=32 +ellps=WGS84 +datum=WGS84 +units=m +no_defs"/>

    <type id="highway.bridleway" priority="1" numLanes="1" speed="2.78" allow="pedestrian" oneway="1" width="2.00"/>
    <type id="highway.bus_guideway" priority="1" numLanes="1" speed="8.33" allow="bus" oneway="1"/>
    <type id="highway.bus_pedestrian" priority="5" numLanes="1" speed="6.94" allow="bus" oneway="0"/>
    <type id="highway.cycleway" priority="1" numLanes="1" speed="5.56" allow="bicycle" oneway="0" width="1.00"/>
    <type id="highway.footway" priority="1" numLanes="1" speed="8.33" allow="pedestrian" oneway="1" width="2.00"/>
    <type id="highway.ford" priority="1" numLanes="1" speed="2.78" allow="army" oneway="0"/>
    <type id="highway.living_street" priority="6" numLanes="1" speed="1.39" disallow="tram rail_urban rail rail_electric ship" oneway="0"/>
    <type id="highway.motorway" priority="13" numLanes="2" speed="41.67" allow="private emergency authority army vip passenger hov taxi bus coach delivery truck trailer motorcycle evehicle custom1 custom2" oneway="1"/>
    <type id="highway.motorway_link" priority="8" numLanes="1" speed="16.67" allow="private emergency authority army vip passenger hov taxi bus coach delivery truck trailer motorcycle evehicle custom1 custom2" oneway="1"/>
    <type id="highway.path" priority="1" numLanes="1" speed="2.78" allow="bicycle pedestrian" oneway="1" width="2.00"/>
    <type id="highway.pedestrian" priority="1" numLanes="1" speed="8.33" allow="pedestrian" oneway="1" width="2.00"/>
    <type id="highway.primary" priority="11" numLanes="1" speed="13.89" disallow="tram rail_urban rail rail_electric ship" oneway="0"/>
    <type id="highway.primary_link" priority="8" numLanes="1" speed="13.89" disallow="tram rail_urban rail rail_electric ship" oneway="0"/>
    <type id="highway.raceway" priority="14" numLanes="2" speed="83.33" allow="vip" oneway="0"/>
    <type id="highway.residential" priority="7" numLanes="1" speed="13.89" disallow="tram rail_urban rail rail_electric ship" oneway="0"/>
    <type id="highway.road" priority="7" numLanes="1" speed="13.89" disallow="tram rail_urban rail rail_electric ship" oneway="0"/>
    <type id="highway.secondary" priority="10" numLanes="1" speed="13.89" disallow="tram rail_urban rail rail_electric ship" oneway="0"/>
    <type id="highway.secondary_link" priority="8" numLanes="1" speed="13.89" disallow="tram rail_urban rail rail_electric ship" oneway="0"/>
    <type id="highway.service" priority="5" numLanes="1" speed="11.11" disallow="tram rail_urban rail rail_electric ship" oneway="0"/>
    <type id="highway.services" priority="1" numLanes="1" speed="8.33" disallow="tram rail_urban rail rail_electric ship" oneway="0"/>
    <type id="highway.stairs" priority="1" numLanes="1" speed="1.39" allow="pedestrian" oneway="1" width="2.00"/>
    <type id="highway.step" priority="1" numLanes="1" speed="1.39" allow="pedestrian" oneway="1" width="2.00"/>
    <type id="highway.steps" priority="1" numLanes="1" speed="1.39" allow="pedestrian" oneway="1" width="2.00"/>
    <type id="highway.tertiary" priority="9" numLanes="1" speed="13.89" disallow="tram rail_urban rail rail_electric ship" oneway="0"/>
    <type id="highway.tertiary_link" priority="5" numLanes="1" speed="13.89" disallow="tram rail_urban rail rail_electric ship" oneway="0"/>
    <type id="highway.track" priority="1" numLanes="1" speed="5.56" disallow="tram rail_urban rail rail_electric ship" oneway="0"/>
    <type id="highway.trunk" priority="12" numLanes="1" speed="13.89" disallow="tram rail_urban rail rail_electric bicycle pedestrian ship" oneway="0"/>
    <type id="highway.trunk_link" priority="8" numLanes="1" speed="13.89" disallow="tram rail_urban rail rail_electric bicycle pedestrian ship" oneway="0"/>
    <type id="highway.unclassified" priority="8" numLanes="1" speed="13.89" disallow="tram rail_urban rail rail_electric ship" oneway="0"/>
    <type id="highway.unsurfaced" priority="1" numLanes="1" speed="8.33" disallow="tram rail_urban rail rail_electric ship" oneway="0"/>
    <type id="railway.light_rail" priority="15" numLanes="1" speed="27.78" allow="rail_urban" oneway="1"/>
    <type id="railway.preserved" priority="15" numLanes="1" speed="27.78" allow="rail" oneway="1"/>
    <type id="railway.rail" priority="15" numLanes="1" speed="83.33" allow="rail rail_electric" oneway="1"/>
    <type id="railway.subway" priority="15" numLanes="1" speed="27.78" allow="rail_urban" oneway="1"/>
    <type id="railway.tram" priority="15" numLanes="1" speed="13.89" allow="tram" oneway="1"/>

    <edge id=":1004410321_0" function="internal">
        <lane id=":1004410321_0_0" index="0" disallow="tram rail_urban rail rail_electric ship" speed="13.89" length="11.23" shape="7537.67,6242.12,3.00 7536.80,6240.80,3.00 7536.00,6239.83,3.00 7535.23,6239.11,3.00 7534.44,6238.58,3.00 7533.61,6238.16,3.00 7532.69,6237.76,3.00 7531.65,6237.32,3.00 7530.44,6236.75,3.00 7529.04,6235.98,3.00"/>
        <lane id=":1004410321_0_1" index="1" disallow="tram rail_urban rail rail_electric ship" speed="13.89" length="11.23" shape="7537.67,6242.12,3.00 7536.82,6240.63,3.00 7536.17,6239.36,3.00 7535.65,6238.27,3.00 7535.17,6237.32,3.00 7534.66,6236.47,3.00 7534.04,6235.67,3.00 7533.22,6234.88,3.00 7532.14,6234.05,3.00 7530.71,6233.14,3.00"/>
    </edge>
    <edge id=":1004410321_2" function="internal">
        <lane id=":1004410321_2_0" index="0" disallow="tram rail_urban rail rail_electric ship" speed="13.89" length="5.76" shape="7540.54,6240.36,3.00 7538.99,6239.22,3.00 7537.75,6238.22,3.00 7536.80,6237.36,3.00 7536.14,6236.65,3.00"/>
    </edge>
    <edge id=":1004410321_3" function="internal">
        <lane id=":1004410321_3_0" index="0" disallow="tram rail_urban rail rail_electric ship" speed="13.89" length="3.97" shape="7540.54,6240.36,3.00 7540.02,6240.00,3.00 7539.54,6239.67,3.00 7539.08,6239.39,3.00 7538.66,6239.15,3.00 7538.27,6238.95,3.00 7537.92,6238.79,3.00 7537.60,6238.66,3.00 7537.30,6238.58,3.00 7537.04,6238.54,3.00"/>
    </edge>
    <edge id=":1004410321_7" function="internal">
        <lane id=":1004410321_7_0" index="0" speed="13.89" length="2.84" shape="7536.14,6236.65,3.00 7535.79,6236.08,3.00 7535.73,6235.66,3.00 7535.96,6235.38,3.00 7536.49,6235.24,3.00 7537.32,6235.25,3.00"/>
    </edge>
    <edge id=":1004410321_4" function="internal">
        <lane id=":1004410321_4_0" index="0" disallow="tram rail_urban rail rail_electric ship" speed="13.89" length="5.66" shape="7534.06,6227.46,3.00 7534.58,6227.76,3.00 7535.01,6228.00,3.00 7535.38,6228.19,3.00 7535.71,6228.33,3.00 7536.03,6228.43,3.00 7536.38,6228.51,3.00 7536.79,6228.57,3.00 7537.28,6228.62,3.00 7537.88,6228.68,3.00"/>
        <lane id=":1004410321_4_1" index="1" disallow="tram rail_urban rail rail_electric ship" speed="13.89" length="5.66" shape="7532.39,6230.30,3.00 7533.10,6230.71,3.00 7533.68,6231.04,3.00 7534.18,6231.30,3.00 7534.63,6231.49,3.00 7535.08,6231.63,3.00 7535.56,6231.74,3.00 7536.11,6231.82,3.00 7536.78,6231.89,3.00 7537.60,6231.97,3.00"/>
        <lane id=":1004410321_4_2" index="2" disallow="tram rail_urban rail rail_electric ship" speed="13.89" length="5.66" shape="7532.39,6230.30,3.00 7533.24,6230.93,3.00 7533.82,6231.61,3.00 7534.23,6232.31,3.00 7534.54,6233.00,3.00 7534.82,6233.65,3.00 7535.16,6234.23,3.00 7535.64,6234.71,3.00 7536.33,6235.07,3.00 7537.32,6235.25,3.00"/>
    </edge>
    <edge id=":1123750572_0" function="internal">
        <lane id=":1123750572_0_0" index="0" disallow="tram rail_urban rail rail_electric ship" speed="13.89" length="9.80" shape="9028.47,4951.24,60.00 9024.43,4960.30,60.00"/>
        <lane id=":1123750572_0_1" index="1" disallow="tram rail_urban rail rail_electric ship" speed="13.89" length="9.80" shape="9025.44,4949.95,60.00 9021.44,4958.90,60.00"/>
        <lane id=":1123750572_0_2" index="2" disallow="tram rail_urban rail rail_electric ship" speed="13.89" length="9.80" shape="9022.40,4948.66,60.00 9018.45,4957.50,60.00"/>
    </edge>
    <edge id=":1123750572_3" function="internal">
        <lane id=":1123750572_3_0" index="0" disallow="tram rail_urban rail rail_electric ship" speed="12.50" length="5.48" shape="9022.40,4948.66,60.00 9021.77,4949.92,60.00 9021.06,4950.96,60.00 9020.26,4951.77,60.00 9019.38,4952.35,60.00 9018.80,4952.56,60.00"/>
    </edge>
    <edge id=":1123750572_9" function="internal">
        <lane id=":1123750572_9_0" index="0" speed="12.50" length="5.26" shape="9018.80,4952.56,60.00 9018.42,4952.70,60.00 9017.37,4952.82,60.00 9016.25,4952.71,60.00 9015.03,4952.37,60.00 9013.74,4951.80,60.00"/>
    </edge>
    <edge id=":1123750572_4" function="internal">
        <lane id=":1123750572_4_0" index="0" disallow="tram rail_urban rail rail_electric ship" speed="12.50" length="5.11" shape="9015.24,4948.86,60.00 9015.86,4949.13,60.00 9016.44,4949.29,60.00 9016.97,4949.34,60.00 9017.47,4949.29,60.00 9017.93,4949.12,60.00 9018.35,4948.85,60.00 9018.73,4948.46,60.00 9019.07,4947.97,60.00 9019.37,4947.36,60.00"/>
    </edge>
    <edge id=":1123750572_5" function="internal">
        <lane id=":1123750572_5_0" index="0" disallow="tram rail_urban rail rail_electric ship" speed="12.50" length="13.23" shape="9015.24,4948.86,60.00 9017.06,4949.87,60.00 9018.59,4950.91,60.00 9019.84,4951.98,60.00 9020.81,4953.07,60.00 9021.50,4954.18,60.00 9021.91,4955.32,60.00 9022.03,4956.49,60.00 9021.88,4957.68,60.00 9021.44,4958.90,60.00"/>
    </edge>
    <edge id=":1123750572_6" function="internal">
        <lane id=":1123750572_6_0" index="0" disallow="tram rail_urban rail rail_electric ship" speed="12.50" length="10.49" shape="9015.24,4948.86,60.00 9016.44,4949.56,60.00 9017.43,4950.32,60.00 9018.20,4951.15,60.00 9018.77,4952.05,60.00 9019.13,4953.01,60.00 9019.27,4954.03,60.00 9019.21,4955.12,60.00 9018.94,4956.28,60.00 9018.45,4957.50,60.00"/>
    </edge>
    <edge id=":1123750572_7" function="internal">
        <lane id=":1123750572_7_0" index="0" disallow="tram rail_urban rail rail_electric ship" speed="12.50" length="5.27" shape="9015.47,4956.10,60.00 9015.70,4955.50,60.00 9015.83,4954.93,60.00 9015.85,4954.40,60.00 9015.76,4953.89,60.00 9015.57,4953.41,60.00 9015.27,4952.96,60.00 9014.87,4952.54,60.00 9014.36,4952.15,60.00 9013.74,4951.80,60.00"/>
    </edge>
    <edge id=":1123750572_8" function="internal">
        <lane id=":1123750572_8_0" index="0" disallow="tram rail_urban rail rail_electric ship" speed="13.89" length="9.57" shape="9015.47,4956.10,60.00 9019.37,4947.36,60.00"/>
    </edge>
    <edge id=":1123750665_0" function="internal">
        <lane id=":1123750665_0_0" index="0" disallow="tram rail_urban rail rail_electric ship" speed="11.11" length="4.87" shape="8986.64,4937.49,60.00 8986.24,4936.86,60.00 8985.98,4936.30,60.00 8985.87,4935.83,60.00 8985.90,4935.43,60.00 8986.07,4935.10,60.00 8986.38,4934.86,60.00 8986.84,4934.68,60.00 8987.45,4934.59,60.00 8988.20,4934.57,60.00"/>
    </edge>
    <edge id=":1161789523_0" function="internal">
        <lane id=":1161789523_0_0" index="0" disallow="tram rail_urban rail rail_electric ship" speed="13.89" length="8.07" shape="7619.39,6272.98,3.00 7620.41,6273.51,3.00 7621.27,6273.82,3.00 7622.03,6273.96,3.00 7622.74,6273.94,3.00 7623.43,6273.80,3.00 7624.16,6273.58,3.00 7624.98,6273.29,3.00 7625.94,6272.98,3.00 7627.08,6272.68,3.00"/>
    </edge>
    <edge id=":1161789523_1" function="internal">
        <lane id=":1161789523_1_0" index="0" disallow="tram rail_urban rail rail_electric ship" speed="13.89" length="8.23" shape="7619.39,6272.98,3.00 7626.55,6276.70,3.00"/>
        <lane id=":1161789523_1_1" index="1" disallow="tram rail_urban rail rail_electric ship" speed="13.89" length="8.23" shape="7617.74,6275.84,3.00 7625.00,6279.61,3.00"/>
        <lane id=":1161789523_1_2" index="2" disallow="tram rail_urban rail rail_electric ship" speed="13.89" length="8.23" shape="7616.08,6278.69,3.00 7623.44,6282.51,3.00"/>
        <lane id=":1161789523_1_3" index="3" disallow="tram rail_urban rail rail_electric ship" speed="13.89" length="8.23" shape="7614.43,6281.55,3.00 7621.88,6285.42,3.00"/>
    </edge>
    <edge id=":1161789529_0" function="internal">
        <lane id=":1161789529_0_0" index="0" disallow="tram rail_urban rail rail_electric ship" speed="13.89" length="7.55" shape="7643.17,6265.47,3.00 7642.12,6258.08,3.00"/>
        <lane id=":1161789529_0_1" index="1" disallow="tram rail_urban rail rail_electric ship" speed="13.89" length="7.55" shape="7646.43,6264.97,3.00 7645.35,6257.41,3.00"/>
    </edge>
    <edge id=":1161789529_2" function="internal">
        <lane id=":1161789529_2_0" index="0" disallow="tram rail_urban rail rail_electric ship" speed="13.89" length="8.43" shape="7651.82,6256.07,3.00 7652.18,6257.29,3.00 7652.65,6258.21,3.00 7653.20,6258.92,3.00 7653.80,6259.49,3.00 7654.40,6260.02,3.00 7654.98,6260.60,3.00 7655.50,6261.30,3.00 7655.92,6262.23,3.00 7656.21,6263.47,3.00"/>
        <lane id=":1161789529_2_1" index="1" disallow="tram rail_urban rail rail_electric ship" speed="13.89" length="8.43" shape="7648.59,6256.74,3.00 7648.94,6257.94,3.00 7649.41,6258.84,3.00 7649.96,6259.52,3.00 7650.55,6260.08,3.00 7651.15,6260.60,3.00 7651.73,6261.16,3.00 7652.24,6261.85,3.00 7652.66,6262.76,3.00 7652.95,6263.97,3.00"/>
        <lane id=":1161789529_2_2" index="2" disallow="tram rail_urban rail rail_electric ship" speed="13.89" length="8.43" shape="7648.59,6256.74,3.00 7649.69,6264.47,3.00"/>
    </edge>
    <edge id=":1161789529_5" function="internal">
        <lane id=":1161789529_5_0" index="0" disallow="tram rail_urban rail rail_electric ship" speed="13.89" length="7.12" shape="7639.17,6264.34,3.00 7639.88,6263.46,3.00 7640.50,6262.64,3.00 7641.02,6261.85,3.00 7641.44,6261.11,3.00 7641.77,6260.42,3.00 7642.00,6259.77,3.00 7642.14,6259.16,3.00 7642.18,6258.60,3.00 7642.12,6258.08,3.00"/>
    </edge>
    <edge id=":1208800142_0" function="internal">
        <lane id=":1208800142_0_0" index="0" disallow="tram rail_urban rail rail_electric ship" speed="13.89" length="0.19" shape="7678.60,6440.02 7678.58,6439.88"/>
        <lane id=":1208800142_0_1" index="1" disallow="tram rail_urban rail rail_electric ship" speed="13.89" length="0.19" shape="7681.87,6439.60 7681.84,6439.38"/>
    </edge>
    <edge id=":1208800142_2" function="internal">
        <lane id=":1208800142_2_0" index="0" disallow="tram rail_urban rail rail_electric ship" speed="13.89" length="0.35" shape="7688.36,6438.38 7688.42,6438.77"/>
        <lane id=":1208800142_2_1" index="1" disallow="tram rail_urban rail rail_electric ship" speed="13.89" length="0.35" shape="7685.10,6438.88 7685.14,6439.18"/>
    </edge>
    <edge id=":1208800162_0" function="internal">
        <lane id=":1208800162_0_0" index="0" disallow="tram rail_urban rail rail_electric ship" speed="12.50" length="5.41" shape="7681.12,6459.80 7681.00,6459.19 7680.80,6458.65 7680.52,6458.18 7680.16,6457.79 7679.73,6457.48 7679.22,6457.24 7678.62,6457.08 7677.95,6457.00 7677.21,6456.99"/>
    </edge>
    <edge id=":1208800162_1" function="internal">
        <lane id=":1208800162_1_0" index="0" disallow="tram rail_urban rail rail_electric ship" speed="13.89" length="9.18" shape="7684.39,6459.39 7683.24,6450.28"/>
    </edge>
    <edge id=":1208800162_2" function="internal">
        <lane id=":1208800162_2_0" index="0" disallow="tram rail_urban rail rail_electric ship" speed="13.89" length="9.19" shape="7689.78,6449.44 7690.94,6458.57"/>
        <lane id=":1208800162_2_1" index="1" disallow="tram rail_urban rail rail_electric ship" speed="13.89" length="9.19" shape="7686.51,6449.86 7687.67,6458.98"/>
    </edge>
    <edge id=":1208800162_4" function="internal">
        <lane id=":1208800162_4_0" index="0" disallow="tram rail_urban rail rail_electric ship" speed="12.50" length="4.72" shape="7686.51,6449.86 7686.57,6451.28 7686.35,6452.55 7685.86,6453.65 7685.36,6454.28"/>
    </edge>
    <edge id=":1208800162_7" function="internal">
        <lane id=":1208800162_7_0" index="0" speed="12.50" length="8.83" shape="7685.36,6454.28 7685.10,6454.60 7684.07,6455.40 7682.76,6456.03 7681.18,6456.51 7679.33,6456.83 7677.21,6456.99"/>
    </edge>
    <edge id=":1208800162_5" function="internal">
        <lane id=":1208800162_5_0" index="0" disallow="tram rail_urban rail rail_electric ship" speed="12.50" length="4.86" shape="7677.08,6453.69 7677.76,6453.63 7678.35,6453.50 7678.85,6453.31 7679.26,6453.04 7679.58,6452.71 7679.81,6452.31 7679.95,6451.84 7680.00,6451.31 7679.96,6450.70"/>
    </edge>
    <edge id=":1208800162_6" function="internal">
        <lane id=":1208800162_6_0" index="0" disallow="tram rail_urban rail rail_electric ship" speed="12.50" length="13.09" shape="7677.08,6453.69 7679.16,6453.69 7681.02,6453.83 7682.65,6454.12 7684.05,6454.56 7685.23,6455.14 7686.18,6455.88 7686.90,6456.76 7687.40,6457.80 7687.67,6458.98"/>
    </edge>
    <edge id=":1208800164_0" function="internal">
        <lane id=":1208800164_0_0" index="0" disallow="tram rail_urban rail rail_electric ship" speed="12.50" length="5.28" shape="7679.92,6450.35 7679.80,6449.82 7679.61,6449.35 7679.32,6448.94 7678.96,6448.60 7678.51,6448.32 7677.97,6448.10 7677.36,6447.95 7676.65,6447.85 7675.87,6447.83"/>
    </edge>
    <edge id=":1208800164_1" function="internal">
        <lane id=":1208800164_1_0" index="0" disallow="tram rail_urban rail rail_electric ship" speed="13.89" length="9.19" shape="7679.92,6450.35 7678.75,6441.23"/>
        <lane id=":1208800164_1_1" index="1" disallow="tram rail_urban rail rail_electric ship" speed="13.89" length="9.19" shape="7683.19,6449.93 7682.02,6440.81"/>
    </edge>
    <edge id=":1208800164_3" function="internal">
        <lane id=":1208800164_3_0" index="0" disallow="tram rail_urban rail rail_electric ship" speed="13.89" length="9.19" shape="7688.57,6439.98 7689.74,6449.09"/>
        <lane id=":1208800164_3_1" index="1" disallow="tram rail_urban rail rail_electric ship" speed="13.89" length="9.19" shape="7685.30,6440.39 7686.46,6449.51"/>
    </edge>
    <edge id=":1208800164_5" function="internal">
        <lane id=":1208800164_5_0" index="0" disallow="tram rail_urban rail rail_electric ship" speed="12.50" length="5.02" shape="7685.30,6440.39 7685.37,6441.95 7685.16,6443.32 7684.67,6444.51 7684.19,6445.14"/>
    </edge>
    <edge id=":1208800164_7" function="internal">
        <lane id=":1208800164_7_0" index="0" speed="12.50" length="9.03" shape="7684.19,6445.14 7683.90,6445.52 7682.85,6446.34 7681.53,6446.99 7679.92,6447.45 7678.03,6447.73 7675.87,6447.83"/>
    </edge>
    <edge id=":1208800164_6" function="internal">
        <lane id=":1208800164_6_0" index="0" disallow="tram rail_urban rail rail_electric ship" speed="12.50" length="5.19" shape="7675.86,6444.53 7676.55,6444.48 7677.15,6444.36 7677.65,6444.16 7678.07,6443.87 7678.39,6443.50 7678.62,6443.06 7678.75,6442.53 7678.80,6441.92 7678.75,6441.23"/>
    </edge>
    <edge id=":1242126988_0" function="internal">
        <lane id=":1242126988_0_0" index="0" disallow="tram rail_urban rail rail_electric ship" speed="11.11" length="5.86" shape="8924.06,5168.82,52.50 8923.83,5169.69,52.50 8923.55,5170.37,52.50 8923.22,5170.86,52.50 8922.84,5171.16,52.50 8922.41,5171.27,52.50 8921.94,5171.19,52.50 8921.41,5170.92,52.50 8920.84,5170.45,52.50 8920.22,5169.80,52.50"/>
    </edge>
    <edge id=":1242127030_0" function="internal">
        <lane id=":1242127030_0_0" index="0" disallow="tram rail_urban rail rail_electric ship" speed="12.50" length="3.98" shape="8920.07,5169.67,52.50 8919.83,5169.58,52.50 8919.62,5169.72,52.50 8919.44,5170.04,52.50 8919.26,5170.49,52.50 8919.11,5171.02,52.50 8918.96,5171.59,52.50 8918.82,5172.14,52.50 8918.68,5172.63,52.50 8918.54,5173.00,52.50"/>
    </edge>
    <edge id=":1242127030_1" function="internal">
        <lane id=":1242127030_1_0" index="0" disallow="tram rail_urban rail rail_electric ship" speed="12.50" length="7.42" shape="8920.07,5169.67,52.50 8919.56,5169.14,52.50 8919.17,5168.55,52.50 8918.89,5167.90,52.50 8918.72,5167.19,52.50 8918.66,5166.43,52.50 8918.72,5165.60,52.50 8918.88,5164.72,52.50 8919.16,5163.78,52.50 8919.55,5162.79,52.50"/>
    </edge>
    <edge id=":1242127030_2" function="internal">
        <lane id=":1242127030_2_0" index="0" disallow="tram rail_urban rail rail_electric ship" speed="12.50" length="5.24" shape="8922.58,5164.10,52.50 8922.38,5164.64,52.50 8922.28,5165.17,52.50 8922.26,5165.70,52.50 8922.33,5166.22,52.50 8922.49,5166.74,52.50 8922.73,5167.25,52.50 8923.06,5167.76,52.50 8923.48,5168.26,52.50 8923.99,5168.75,52.50"/>
    </edge>
    <edge id=":1242127030_3" function="internal">
        <lane id=":1242127030_3_0" index="0" disallow="tram rail_urban rail rail_electric ship" speed="13.89" length="9.77" shape="8922.58,5164.10,52.50 8918.54,5173.00,52.50"/>
    </edge>
    <edge id=":1242127030_4" function="internal">
        <lane id=":1242127030_4_0" index="0" disallow="tram rail_urban rail rail_electric ship" speed="13.89" length="9.69" shape="8915.55,5171.61,52.50 8919.55,5162.79,52.50"/>
    </edge>
    <edge id=":1242127030_5" function="internal">
        <lane id=":1242127030_5_0" index="0" disallow="tram rail_urban rail rail_electric ship" speed="12.50" length="5.98" shape="8915.55,5171.61,52.50 8916.33,5170.12,52.50 8917.15,5168.93,52.50 8918.01,5168.02,52.50 8918.91,5167.41,52.50 8919.39,5167.25,52.50"/>
    </edge>
    <edge id=":1242127030_6" function="internal">
        <lane id=":1242127030_6_0" index="0" speed="12.50" length="5.09" shape="8919.39,5167.25,52.50 8919.85,5167.10,52.50 8920.82,5167.07,52.50 8921.84,5167.34,52.50 8922.89,5167.90,52.50 8923.99,5168.75,52.50"/>
    </edge>
    <edge id=":1272560702_0" function="internal">
        <lane id=":1272560702_0_0" index="0" disallow="tram rail_urban rail rail_electric ship" speed="13.89" length="9.58" shape="8672.10,5721.92,37.00 8667.98,5730.57,37.00"/>
    </edge>
    <edge id=":1272560702_1" function="internal">
        <lane id=":1272560702_1_0" index="0" disallow="tram rail_urban rail rail_electric ship" speed="12.50" length="5.11" shape="8672.10,5721.92,37.00 8671.50,5723.02,37.00 8670.80,5723.93,37.00 8670.01,5724.66,37.00 8669.12,5725.20,37.00 8668.56,5725.40,37.00"/>
    </edge>
    <edge id=":1272560702_6" function="internal">
        <lane id=":1272560702_6_0" index="0" speed="12.50" length="5.34" shape="8668.56,5725.40,37.00 8668.15,5725.55,37.00 8667.09,5725.72,37.00 8665.93,5725.69,37.00 8664.68,5725.48,37.00 8663.34,5725.09,37.00"/>
    </edge>
    <edge id=":1272560702_2" function="internal">
        <lane id=":1272560702_2_0" index="0" disallow="tram rail_urban rail rail_electric ship" speed="12.50" length="5.48" shape="8664.44,5721.98,37.00 8665.17,5722.20,37.00 8665.85,5722.32,37.00 8666.48,5722.35,37.00 8667.05,5722.29,37.00 8667.57,5722.12,37.00 8668.04,5721.87,37.00 8668.45,5721.51,37.00 8668.81,5721.06,37.00 8669.11,5720.52,37.00"/>
    </edge>
    <edge id=":1272560702_3" function="internal">
        <lane id=":1272560702_3_0" index="0" disallow="tram rail_urban rail rail_electric ship" speed="12.50" length="10.95" shape="8664.44,5721.98,37.00 8665.78,5722.54,37.00 8666.88,5723.20,37.00 8667.75,5723.96,37.00 8668.38,5724.82,37.00 8668.78,5725.78,37.00 8668.93,5726.83,37.00 8668.85,5727.98,37.00 8668.54,5729.23,37.00 8667.98,5730.57,37.00"/>
    </edge>
    <edge id=":1272560702_4" function="internal">
        <lane id=":1272560702_4_0" index="0" disallow="tram rail_urban rail rail_electric ship" speed="12.50" length="5.17" shape="8665.01,5729.14,37.00 8665.27,5728.51,37.00 8665.42,5727.92,37.00 8665.46,5727.38,37.00 8665.38,5726.88,37.00 8665.20,5726.43,37.00 8664.90,5726.02,37.00 8664.49,5725.67,37.00 8663.97,5725.35,37.00 8663.34,5725.09,37.00"/>
    </edge>
    <edge id=":1272560702_5" function="internal">
        <lane id=":1272560702_5_0" index="0" disallow="tram rail_urban rail rail_electric ship" speed="13.89" length="9.55" shape="8665.01,5729.14,37.00 8669.11,5720.52,37.00"/>
    </edge>
    <edge id=":146540943_0" function="internal">
        <lane id=":146540943_0_0" index="0" disallow="tram rail_urban rail rail_electric ship" speed="12.50" length="8.21" shape="7682.11,5850.05,5.01 7681.96,5849.88,5.98 7681.80,5849.73,6.89 7681.63,5849.61,7.75 7681.45,5849.52,8.59 7681.26,5849.45,9.42 7681.06,5849.42,10.26 7680.85,5849.41,11.12 7680.64,5849.43,12.03 7680.41,5849.48,13.00"/>
    </edge>
    <edge id=":146540943_1" function="internal">
        <lane id=":146540943_1_0" index="0" disallow="tram rail_urban rail rail_electric ship" speed="12.50" length="9.87" shape="7679.54,5846.30,13.00 7680.23,5846.15,12.04 7680.90,5846.08,11.14 7681.53,5846.11,10.28 7682.14,5846.21,9.44 7682.72,5846.41,8.62 7683.26,5846.69,7.79 7683.78,5847.06,6.93 7684.27,5847.51,6.03 7684.73,5848.06,5.07"/>
    </edge>
    <edge id=":1474685781_0" function="internal">
        <lane id=":1474685781_0_0" index="0" disallow="tram rail_urban rail rail_electric ship" speed="12.50" length="7.59" shape="7696.29,6422.14 7696.43,6423.45 7696.50,6424.62 7696.48,6425.66 7696.37,6426.55 7696.19,6427.31 7695.92,6427.93 7695.57,6428.41 7695.13,6428.75 7694.61,6428.96"/>
    </edge>
    <edge id=":1544004703_0" function="internal">
        <lane id=":1544004703_0_0" index="0" disallow="tram rail_urban rail rail_electric ship" speed="11.11" length="5.14" shape="7710.25,5616.72,20.00 7709.58,5616.61,20.00 7708.98,5616.60,20.00 7708.45,5616.68,20.00 7707.98,5616.86,20.00 7707.58,5617.14,20.00 7707.24,5617.52,20.00 7706.98,5617.99,20.00 7706.78,5618.56,20.00 7706.65,5619.22,20.00"/>
    </edge>
    <edge id=":1544004703_1" function="internal">
        <lane id=":1544004703_1_0" index="0" disallow="tram rail_urban rail rail_electric ship" speed="11.11" length="10.61" shape="7710.98,5613.50,20.00 7709.59,5613.12,20.00 7708.39,5612.62,20.00 7707.36,5612.02,20.00 7706.52,5611.31,20.00 7705.85,5610.49,20.00 7705.37,5609.56,20.00 7705.07,5608.53,20.00 7704.96,5607.38,20.00 7705.02,5606.13,20.00"/>
    </edge>
    <edge id=":1544004703_2" function="internal">
        <lane id=":1544004703_2_0" index="0" disallow="tram rail_urban rail rail_electric ship" speed="11.11" length="5.67" shape="7708.30,5606.52,20.00 7708.27,5607.14,20.00 7708.35,5607.71,20.00 7708.52,5608.23,20.00 7708.80,5608.70,20.00 7709.18,5609.12,20.00 7709.66,5609.49,20.00 7710.24,5609.81,20.00 7710.92,5610.07,20.00 7711.71,5610.28,20.00"/>
    </edge>
    <edge id=":1544004703_3" function="internal">
        <lane id=":1544004703_3_0" index="0" disallow="tram rail_urban rail rail_electric ship" speed="13.89" length="12.81" shape="7708.30,5606.52,20.00 7706.65,5619.22,20.00"/>
    </edge>
    <edge id=":1544004703_4" function="internal">
        <lane id=":1544004703_4_0" index="0" disallow="tram rail_urban rail rail_electric ship" speed="13.89" length="12.69" shape="7700.11,5618.34,20.00 7701.74,5605.75,20.00"/>
    </edge>
    <edge id=":1544004703_5" function="internal">
        <lane id=":1544004703_5_0" index="0" disallow="tram rail_urban rail rail_electric ship" speed="11.11" length="7.54" shape="7703.38,5618.78,20.00 7703.75,5616.69,20.00 7704.26,5614.88,20.00 7704.91,5613.36,20.00 7705.70,5612.13,20.00 7705.99,5611.83,20.00"/>
    </edge>
    <edge id=":1544004703_6" function="internal">
        <lane id=":1544004703_6_0" index="0" speed="11.11" length="6.24" shape="7705.99,5611.83,20.00 7706.62,5611.19,20.00 7707.69,5610.53,20.00 7708.89,5610.16,20.00 7710.23,5610.08,20.00 7711.71,5610.28,20.00"/>
    </edge>
    <edge id=":1546367638_0" function="internal">
        <lane id=":1546367638_0_0" index="0" disallow="tram rail_urban rail rail_electric ship" speed="13.89" length="9.09" shape="7619.79,5008.11,35.00 7618.45,5008.22,35.00 7617.41,5008.53,35.00 7616.59,5008.97,35.00 7615.89,5009.49,35.00 7615.23,5010.05,35.00 7614.53,5010.57,35.00 7613.71,5011.02,35.00 7612.67,5011.34,35.00 7611.33,5011.47,35.00"/>
        <lane id=":1546367638_0_1" index="1" disallow="tram rail_urban rail rail_electric ship" speed="13.89" length="9.09" shape="7619.79,5004.81,35.00 7618.45,5004.92,35.00 7617.40,5005.23,35.00 7616.57,5005.67,35.00 7615.87,5006.19,35.00 7615.21,5006.75,35.00 7614.51,5007.27,35.00 7613.68,5007.72,35.00 7612.63,5008.04,35.00 7611.29,5008.17,35.00"/>
        <lane id=":1546367638_0_2" index="2" disallow="tram rail_urban rail rail_electric ship" speed="13.89" length="9.09" shape="7619.79,5004.81,35.00 7611.25,5004.87,35.00"/>
    </edge>
    <edge id=":1546367638_3" function="internal">
        <lane id=":1546367638_3_0" index="0" disallow="tram rail_urban rail rail_electric ship" speed="13.89" length="8.60" shape="7611.17,4998.27,35.00 7619.79,4998.21,35.00"/>