<?xml version="1.0" encoding="UTF-8"?>

<additional xmlns:xsi="http://www.w3.org/2001/XMLSchema-instance" xsi:noNamespaceSchemaLocation="http://sumo.dlr.de/xsd/additional_file.xsd">

	<poly id="1" type="building" color="128,128,128" fill="1" layer="-1.00" shape="105.0,5.0 195.0,5.0 195.0,100.0 105.0,100.0 105.0,5.0" />
	<poly id="2" type="building" color="128,128,128" fill="1" layer="-1.00" shape="305.0,5.0 495.0,5.0 495.0,91.8 305.0,91.8 305.0,5.0" />
</additional>
