<?xml version="1.0" encoding="UTF-8"?>

<!-- generated on Tue Jul 16 09:42:29 2019 by Eclipse SUMO netgenerate Version 1.1.0
<configuration xmlns:xsi="http://www.w3.org/2001/XMLSchema-instance" xsi:noNamespaceSchemaLocation="http://sumo.dlr.de/xsd/netgenerateConfiguration.xsd">

    <grid_network>
        <grid value="true"/>
        <grid.x-number value="15"/>
        <grid.y-number value="15"/>
        <grid.x-length value="35"/>
        <grid.y-length value="35"/>
        <grid.attach-length value="100"/>
    </grid_network>

    <output>
        <alphanumerical-ids value="true"/>
        <output-file value="grid-hs-experiment-test_block1.net.xml"/>
    </output>

    <building_defaults>
        <default.lanenumber value="1"/>
        <default.lanewidth value="3.8"/>
        <default.speed value="9"/>
        <default.junctions.radius value="5"/>
        <default-junction-type value="priority"/>
    </building_defaults>

    <junctions>
        <no-turnarounds value="true"/>
        <junctions.corner-detail value="5"/>
        <junctions.internal-link-detail value="16"/>
        <junctions.limit-turn-speed value="0.85"/>
        <junctions.small-radius value="0"/>
    </junctions>

</configuration>
-->

<net version="1.1" junctionCornerDetail="5" junctionLinkDetail="16" limitTurnSpeed="0.85" xmlns:xsi="http://www.w3.org/2001/XMLSchema-instance" xsi:noNamespaceSchemaLocation="http://sumo.dlr.de/xsd/net_file.xsd">

    <location netOffset="0.00,0.00" convBoundary="0.00,0.00,690.00,690.00" origBoundary="0.00,0.00,690.00,690.00" projParameter="!"/>

    <edge id=":A0_0" function="internal">
        <lane id=":A0_0_0" index="0" speed="2.84" length="11.20" width="3.80" shape="98.10,108.80 98.07,107.91 97.98,107.08 97.82,106.32 97.61,105.61 97.33,104.97 97.00,104.38 96.60,103.86 96.14,103.40 95.62,103.00 95.03,102.67 94.39,102.39 93.68,102.18 92.92,102.02 92.09,101.93 91.20,101.90"/>
    </edge>
    <edge id=":A0_1" function="internal">
        <lane id=":A0_1_0" index="0" speed="9.00" length="17.60" width="3.80" shape="98.10,108.80 98.10,91.20"/>
    </edge>
    <edge id=":A0_2" function="internal">
        <lane id=":A0_2_0" index="0" speed="3.48" length="7.47" width="3.80" shape="98.10,108.80 98.15,107.42 98.29,106.14 98.53,104.95 98.86,103.85 99.29,102.86 99.81,101.95 100.00,101.71"/>
    </edge>
    <edge id=":A0_12" function="internal">
        <lane id=":A0_12_0" index="0" speed="3.48" length="9.89" width="3.80" shape="100.00,101.71 100.43,101.14 101.14,100.43 101.95,99.81 102.86,99.29 103.85,98.86 104.95,98.53 106.14,98.29 107.42,98.15 108.80,98.10"/>
    </edge>
    <edge id=":A0_3" function="internal">
        <lane id=":A0_3_0" index="0" speed="2.84" length="11.20" width="3.80" shape="108.80,101.90 107.91,101.93 107.08,102.02 106.32,102.18 105.61,102.39 104.97,102.67 104.38,103.00 103.86,103.40 103.40,103.86 103.00,104.38 102.67,104.97 102.39,105.61 102.18,106.32 102.02,107.08 101.93,107.91 101.90,108.80"/>
    </edge>
    <edge id=":A0_4" function="internal">
        <lane id=":A0_4_0" index="0" speed="9.00" length="17.60" width="3.80" shape="108.80,101.90 91.20,101.90"/>
    </edge>
    <edge id=":A0_5" function="internal">
        <lane id=":A0_5_0" index="0" speed="3.48" length="17.36" width="3.80" shape="108.80,101.90 107.42,101.85 106.14,101.71 104.95,101.47 103.85,101.14 102.86,100.71 101.95,100.19 101.14,99.57 100.43,98.86 99.81,98.05 99.29,97.14 98.86,96.15 98.53,95.05 98.29,93.86 98.15,92.58 98.10,91.20"/>
    </edge>
    <edge id=":A0_6" function="internal">
        <lane id=":A0_6_0" index="0" speed="2.84" length="11.20" width="3.80" shape="101.90,91.20 101.93,92.09 102.02,92.92 102.18,93.68 102.39,94.39 102.67,95.03 103.00,95.62 103.40,96.14 103.86,96.60 104.38,97.00 104.97,97.33 105.61,97.61 106.32,97.82 107.08,97.98 107.91,98.07 108.80,98.10"/>
    </edge>
    <edge id=":A0_7" function="internal">
        <lane id=":A0_7_0" index="0" speed="9.00" length="17.60" width="3.80" shape="101.90,91.20 101.90,108.80"/>
    </edge>
    <edge id=":A0_8" function="internal">
        <lane id=":A0_8_0" index="0" speed="3.48" length="7.47" width="3.80" shape="101.90,91.20 101.85,92.58 101.71,93.86 101.47,95.05 101.14,96.15 100.71,97.14 100.19,98.05 100.00,98.29"/>
    </edge>
    <edge id=":A0_13" function="internal">
        <lane id=":A0_13_0" index="0" speed="3.48" length="9.89" width="3.80" shape="100.00,98.29 99.57,98.86 98.86,99.57 98.05,100.19 97.14,100.71 96.15,101.14 95.05,101.47 93.86,101.71 92.58,101.85 91.20,101.90"/>
    </edge>
    <edge id=":A0_9" function="internal">
        <lane id=":A0_9_0" index="0" speed="2.84" length="11.20" width="3.80" shape="91.20,98.10 92.09,98.07 92.92,97.98 93.68,97.82 94.39,97.61 95.03,97.33 95.62,97.00 96.14,96.60 96.60,96.14 97.00,95.62 97.33,95.03 97.61,94.39 97.82,93.68 97.98,92.92 98.07,92.09 98.10,91.20"/>
    </edge>
    <edge id=":A0_10" function="internal">
        <lane id=":A0_10_0" index="0" speed="9.00" length="17.60" width="3.80" shape="91.20,98.10 108.80,98.10"/>
    </edge>
    <edge id=":A0_11" function="internal">
        <lane id=":A0_11_0" index="0" speed="3.48" length="17.36" width="3.80" shape="91.20,98.10 92.58,98.15 93.86,98.29 95.05,98.53 96.15,98.86 97.14,99.29 98.05,99.81 98.86,100.43 99.57,101.14 100.19,101.95 100.71,102.86 101.14,103.85 101.47,104.95 101.71,106.14 101.85,107.42 101.90,108.80"/>
    </edge>
    <edge id=":A1_0" function="internal">
        <lane id=":A1_0_0" index="0" speed="2.84" length="11.20" width="3.80" shape="98.10,143.80 98.07,142.91 97.98,142.08 97.82,141.32 97.61,140.61 97.33,139.97 97.00,139.38 96.60,138.86 96.14,138.40 95.62,138.00 95.03,137.67 94.39,137.39 93.68,137.18 92.92,137.02 92.09,136.93 91.20,136.90"/>
    </edge>
    <edge id=":A1_1" function="internal">
        <lane id=":A1_1_0" index="0" speed="9.00" length="17.60" width="3.80" shape="98.10,143.80 98.10,126.20"/>
    </edge>
    <edge id=":A1_2" function="internal">
        <lane id=":A1_2_0" index="0" speed="3.48" length="7.47" width="3.80" shape="98.10,143.80 98.15,142.42 98.29,141.14 98.53,139.95 98.86,138.85 99.29,137.86 99.81,136.95 100.00,136.71"/>
    </edge>
    <edge id=":A1_12" function="internal">
        <lane id=":A1_12_0" index="0" speed="3.48" length="9.89" width="3.80" shape="100.00,136.71 100.43,136.14 101.14,135.43 101.95,134.81 102.86,134.29 103.85,133.86 104.95,133.53 106.14,133.29 107.42,133.15 108.80,133.10"/>
    </edge>
    <edge id=":A1_3" function="internal">
        <lane id=":A1_3_0" index="0" speed="2.84" length="11.20" width="3.80" shape="108.80,136.90 107.91,136.93 107.08,137.02 106.32,137.18 105.61,137.39 104.97,137.67 104.38,138.00 103.86,138.40 103.40,138.86 103.00,139.38 102.67,139.97 102.39,140.61 102.18,141.32 102.02,142.08 101.93,142.91 101.90,143.80"/>
    </edge>
    <edge id=":A1_4" function="internal">
        <lane id=":A1_4_0" index="0" speed="9.00" length="17.60" width="3.80" shape="108.80,136.90 91.20,136.90"/>
    </edge>
    <edge id=":A1_5" function="internal">
        <lane id=":A1_5_0" index="0" speed="3.48" length="17.36" width="3.80" shape="108.80,136.90 107.42,136.85 106.14,136.71 104.95,136.47 103.85,136.14 102.86,135.71 101.95,135.19 101.14,134.57 100.43,133.86 99.81,133.05 99.29,132.14 98.86,131.15 98.53,130.05 98.29,128.86 98.15,127.58 98.10,126.20"/>
    </edge>
    <edge id=":A1_6" function="internal">
        <lane id=":A1_6_0" index="0" speed="2.84" length="11.20" width="3.80" shape="101.90,126.20 101.93,127.09 102.02,127.92 102.18,128.68 102.39,129.39 102.67,130.03 103.00,130.62 103.40,131.14 103.86,131.60 104.38,132.00 104.97,132.33 105.61,132.61 106.32,132.82 107.08,132.98 107.91,133.07 108.80,133.10"/>
    </edge>
    <edge id=":A1_7" function="internal">
        <lane id=":A1_7_0" index="0" speed="9.00" length="17.60" width="3.80" shape="101.90,126.20 101.90,143.80"/>
    </edge>
    <edge id=":A1_8" function="internal">
        <lane id=":A1_8_0" index="0" speed="3.48" length="7.47" width="3.80" shape="101.90,126.20 101.85,127.58 101.71,128.86 101.47,130.05 101.14,131.15 100.71,132.14 100.19,133.05 100.00,133.29"/>
    </edge>
    <edge id=":A1_13" function="internal">
        <lane id=":A1_13_0" index="0" speed="3.48" length="9.89" width="3.80" shape="100.00,133.29 99.57,133.86 98.86,134.57 98.05,135.19 97.14,135.71 96.15,136.14 95.05,136.47 93.86,136.71 92.58,136.85 91.20,136.90"/>
    </edge>
    <edge id=":A1_9" function="internal">
        <lane id=":A1_9_0" index="0" speed="2.84" length="11.20" width="3.80" shape="91.20,133.10 92.09,133.07 92.92,132.98 93.68,132.82 94.39,132.61 95.03,132.33 95.62,132.00 96.14,131.60 96.60,131.14 97.00,130.62 97.33,130.03 97.61,129.39 97.82,128.68 97.98,127.92 98.07,127.09 98.10,126.20"/>
    </edge>
    <edge id=":A1_10" function="internal">
        <lane id=":A1_10_0" index="0" speed="9.00" length="17.60" width="3.80" shape="91.20,133.10 108.80,133.10"/>
    </edge>
    <edge id=":A1_11" function="internal">
        <lane id=":A1_11_0" index="0" speed="3.48" length="17.36" width="3.80" shape="91.20,133.10 92.58,133.15 93.86,133.29 95.05,133.53 96.15,133.86 97.14,134.29 98.05,134.81 98.86,135.43 99.57,136.14 100.19,136.95 100.71,137.86 101.14,138.85 101.47,139.95 101.71,141.14 101.85,142.42 101.90,143.80"/>
    </edge>
    <edge id=":A10_0" function="internal">
        <lane id=":A10_0_0" index="0" speed="2.84" length="11.20" width="3.80" shape="98.10,458.80 98.07,457.91 97.98,457.08 97.82,456.32 97.61,455.61 97.33,454.97 97.00,454.38 96.60,453.86 96.14,453.40 95.62,453.00 95.03,452.67 94.39,452.39 93.68,452.18 92.92,452.02 92.09,451.93 91.20,451.90"/>
    </edge>
    <edge id=":A10_1" function="internal">
        <lane id=":A10_1_0" index="0" speed="9.00" length="17.60" width="3.80" shape="98.10,458.80 98.10,441.20"/>
    </edge>
    <edge id=":A10_2" function="internal">
        <lane id=":A10_2_0" index="0" speed="3.48" length="7.47" width="3.80" shape="98.10,458.80 98.15,457.42 98.29,456.14 98.53,454.95 98.86,453.85 99.29,452.86 99.81,451.95 100.00,451.71"/>
    </edge>
    <edge id=":A10_12" function="internal">
        <lane id=":A10_12_0" index="0" speed="3.48" length="9.89" width="3.80" shape="100.00,451.71 100.43,451.14 101.14,450.43 101.95,449.81 102.86,449.29 103.85,448.86 104.95,448.53 106.14,448.29 107.42,448.15 108.80,448.10"/>
    </edge>
    <edge id=":A10_3" function="internal">
        <lane id=":A10_3_0" index="0" speed="2.84" length="11.20" width="3.80" shape="108.80,451.90 107.91,451.93 107.08,452.02 106.32,452.18 105.61,452.39 104.97,452.67 104.38,453.00 103.86,453.40 103.40,453.86 103.00,454.38 102.67,454.97 102.39,455.61 102.18,456.32 102.02,457.08 101.93,457.91 101.90,458.80"/>
    </edge>
    <edge id=":A10_4" function="internal">
        <lane id=":A10_4_0" index="0" speed="9.00" length="17.60" width="3.80" shape="108.80,451.90 91.20,451.90"/>
    </edge>
    <edge id=":A10_5" function="internal">
        <lane id=":A10_5_0" index="0" speed="3.48" length="17.36" width="3.80" shape="108.80,451.90 107.42,451.85 106.14,451.71 104.95,451.47 103.85,451.14 102.86,450.71 101.95,450.19 101.14,449.57 100.43,448.86 99.81,448.05 99.29,447.14 98.86,446.15 98.53,445.05 98.29,443.86 98.15,442.58 98.10,441.20"/>
    </edge>
    <edge id=":A10_6" function="internal">
        <lane id=":A10_6_0" index="0" speed="2.84" length="11.20" width="3.80" shape="101.90,441.20 101.93,442.09 102.02,442.92 102.18,443.68 102.39,444.39 102.67,445.03 103.00,445.62 103.40,446.14 103.86,446.60 104.38,447.00 104.97,447.33 105.61,447.61 106.32,447.82 107.08,447.98 107.91,448.07 108.80,448.10"/>
    </edge>
    <edge id=":A10_7" function="internal">
        <lane id=":A10_7_0" index="0" speed="9.00" length="17.60" width="3.80" shape="101.90,441.20 101.90,458.80"/>
    </edge>
    <edge id=":A10_8" function="internal">
        <lane id=":A10_8_0" index="0" speed="3.48" length="7.47" width="3.80" shape="101.90,441.20 101.85,442.58 101.71,443.86 101.47,445.05 101.14,446.15 100.71,447.14 100.19,448.05 100.00,448.29"/>
    </edge>
    <edge id=":A10_13" function="internal">
        <lane id=":A10_13_0" index="0" speed="3.48" length="9.89" width="3.80" shape="100.00,448.29 99.57,448.86 98.86,449.57 98.05,450.19 97.14,450.71 96.15,451.14 95.05,451.47 93.86,451.71 92.58,451.85 91.20,451.90"/>
    </edge>
    <edge id=":A10_9" function="internal">
        <lane id=":A10_9_0" index="0" speed="2.84" length="11.20" width="3.80" shape="91.20,448.10 92.09,448.07 92.92,447.98 93.68,447.82 94.39,447.61 95.03,447.33 95.62,447.00 96.14,446.60 96.60,446.14 97.00,445.62 97.33,445.03 97.61,444.39 97.82,443.68 97.98,442.92 98.07,442.09 98.10,441.20"/>
    </edge>
    <edge id=":A10_10" function="internal">
        <lane id=":A10_10_0" index="0" speed="9.00" length="17.60" width="3.80" shape="91.20,448.10 108.80,448.10"/>
    </edge>
    <edge id=":A10_11" function="internal">
        <lane id=":A10_11_0" index="0" speed="3.48" length="17.36" width="3.80" shape="91.20,448.10 92.58,448.15 93.86,448.29 95.05,448.53 96.15,448.86 97.14,449.29 98.05,449.81 98.86,450.43 99.57,451.14 100.19,451.95 100.71,452.86 101.14,453.85 101.47,454.95 101.71,456.14 101.85,457.42 101.90,458.80"/>
    </edge>
    <edge id=":A11_0" function="internal">
        <lane id=":A11_0_0" index="0" speed="2.84" length="11.20" width="3.80" shape="98.10,493.80 98.07,492.91 97.98,492.08 97.82,491.32 97.61,490.61 97.33,489.97 97.00,489.38 96.60,488.86 96.14,488.40 95.62,488.00 95.03,487.67 94.39,487.39 93.68,487.18 92.92,487.02 92.09,486.93 91.20,486.90"/>
    </edge>
    <edge id=":A11_1" function="internal">
        <lane id=":A11_1_0" index="0" speed="9.00" length="17.60" width="3.80" shape="98.10,493.80 98.10,476.20"/>
    </edge>
    <edge id=":A11_2" function="internal">
        <lane id=":A11_2_0" index="0" speed="3.48" length="7.47" width="3.80" shape="98.10,493.80 98.15,492.42 98.29,491.14 98.53,489.95 98.86,488.85 99.29,487.86 99.81,486.95 100.00,486.71"/>
    </edge>
    <edge id=":A11_12" function="internal">
        <lane id=":A11_12_0" index="0" speed="3.48" length="9.89" width="3.80" shape="100.00,486.71 100.43,486.14 101.14,485.43 101.95,484.81 102.86,484.29 103.85,483.86 104.95,483.53 106.14,483.29 107.42,483.15 108.80,483.10"/>
    </edge>
    <edge id=":A11_3" function="internal">
        <lane id=":A11_3_0" index="0" speed="2.84" length="11.20" width="3.80" shape="108.80,486.90 107.91,486.93 107.08,487.02 106.32,487.18 105.61,487.39 104.97,487.67 104.38,488.00 103.86,488.40 103.40,488.86 103.00,489.38 102.67,489.97 102.39,490.61 102.18,491.32 102.02,492.08 101.93,492.91 101.90,493.80"/>
    </edge>
    <edge id=":A11_4" function="internal">
        <lane id=":A11_4_0" index="0" speed="9.00" length="17.60" width="3.80" shape="108.80,486.90 91.20,486.90"/>
    </edge>
    <edge id=":A11_5" function="internal">
        <lane id=":A11_5_0" index="0" speed="3.48" length="17.36" width="3.80" shape="108.80,486.90 107.42,486.85 106.14,486.71 104.95,486.47 103.85,486.14 102.86,485.71 101.95,485.19 101.14,484.57 100.43,483.86 99.81,483.05 99.29,482.14 98.86,481.15 98.53,480.05 98.29,478.86 98.15,477.58 98.10,476.20"/>
    </edge>
    <edge id=":A11_6" function="internal">
        <lane id=":A11_6_0" index="0" speed="2.84" length="11.20" width="3.80" shape="101.90,476.20 101.93,477.09 102.02,477.92 102.18,478.68 102.39,479.39 102.67,480.03 103.00,480.62 103.40,481.14 103.86,481.60 104.38,482.00 104.97,482.33 105.61,482.61 106.32,482.82 107.08,482.98 107.91,483.07 108.80,483.10"/>
    </edge>
    <edge id=":A11_7" function="internal">
        <lane id=":A11_7_0" index="0" speed="9.00" length="17.60" width="3.80" shape="101.90,476.20 101.90,493.80"/>
    </edge>
    <edge id=":A11_8" function="internal">
        <lane id=":A11_8_0" index="0" speed="3.48" length="7.47" width="3.80" shape="101.90,476.20 101.85,477.58 101.71,478.86 101.47,480.05 101.14,481.15 100.71,482.14 100.19,483.05 100.00,483.29"/>
    </edge>
    <edge id=":A11_13" function="internal">
        <lane id=":A11_13_0" index="0" speed="3.48" length="9.89" width="3.80" shape="100.00,483.29 99.57,483.86 98.86,484.57 98.05,485.19 97.14,485.71 96.15,486.14 95.05,486.47 93.86,486.71 92.58,486.85 91.20,486.90"/>
    </edge>
    <edge id=":A11_9" function="internal">
        <lane id=":A11_9_0" index="0" speed="2.84" length="11.20" width="3.80" shape="91.20,483.10 92.09,483.07 92.92,482.98 93.68,482.82 94.39,482.61 95.03,482.33 95.62,482.00 96.14,481.60 96.60,481.14 97.00,480.62 97.33,480.03 97.61,479.39 97.82,478.68 97.98,477.92 98.07,477.09 98.10,476.20"/>
    </edge>
    <edge id=":A11_10" function="internal">
        <lane id=":A11_10_0" index="0" speed="9.00" length="17.60" width="3.80" shape="91.20,483.10 108.80,483.10"/>
    </edge>
    <edge id=":A11_11" function="internal">
        <lane id=":A11_11_0" index="0" speed="3.48" length="17.36" width="3.80" shape="91.20,483.10 92.58,483.15 93.86,483.29 95.05,483.53 96.15,483.86 97.14,484.29 98.05,484.81 98.86,485.43 99.57,486.14 100.19,486.95 100.71,487.86 101.14,488.85 101.47,489.95 101.71,491.14 101.85,492.42 101.90,493.80"/>
    </edge>
    <edge id=":A12_0" function="internal">
        <lane id=":A12_0_0" index="0" speed="2.84" length="11.20" width="3.80" shape="98.10,528.80 98.07,527.91 97.98,527.08 97.82,526.32 97.61,525.61 97.33,524.97 97.00,524.38 96.60,523.86 96.14,523.40 95.62,523.00 95.03,522.67 94.39,522.39 93.68,522.18 92.92,522.02 92.09,521.93 91.20,521.90"/>
    </edge>
    <edge id=":A12_1" function="internal">
        <lane id=":A12_1_0" index="0" speed="9.00" length="17.60" width="3.80" shape="98.10,528.80 98.10,511.20"/>
    </edge>
    <edge id=":A12_2" function="internal">
        <lane id=":A12_2_0" index="0" speed="3.48" length="7.47" width="3.80" shape="98.10,528.80 98.15,527.42 98.29,526.14 98.53,524.95 98.86,523.85 99.29,522.86 99.81,521.95 100.00,521.71"/>
    </edge>
    <edge id=":A12_12" function="internal">
        <lane id=":A12_12_0" index="0" speed="3.48" length="9.89" width="3.80" shape="100.00,521.71 100.43,521.14 101.14,520.43 101.95,519.81 102.86,519.29 103.85,518.86 104.95,518.53 106.14,518.29 107.42,518.15 108.80,518.10"/>
    </edge>
    <edge id=":A12_3" function="internal">
        <lane id=":A12_3_0" index="0" speed="2.84" length="11.20" width="3.80" shape="108.80,521.90 107.91,521.93 107.08,522.02 106.32,522.18 105.61,522.39 104.97,522.67 104.38,523.00 103.86,523.40 103.40,523.86 103.00,524.38 102.67,524.97 102.39,525.61 102.18,526.32 102.02,527.08 101.93,527.91 101.90,528.80"/>
    </edge>
    <edge id=":A12_4" function="internal">
        <lane id=":A12_4_0" index="0" speed="9.00" length="17.60" width="3.80" shape="108.80,521.90 91.20,521.90"/>
    </edge>
    <edge id=":A12_5" function="internal">
        <lane id=":A12_5_0" index="0" speed="3.48" length="17.36" width="3.80" shape="108.80,521.90 107.42,521.85 106.14,521.71 104.95,521.47 103.85,521.14 102.86,520.71 101.95,520.19 101.14,519.57 100.43,518.86 99.81,518.05 99.29,517.14 98.86,516.15 98.53,515.05 98.29,513.86 98.15,512.58 98.10,511.20"/>
    </edge>
    <edge id=":A12_6" function="internal">
        <lane id=":A12_6_0" index="0" speed="2.84" length="11.20" width="3.80" shape="101.90,511.20 101.93,512.09 102.02,512.92 102.18,513.68 102.39,514.39 102.67,515.03 103.00,515.62 103.40,516.14 103.86,516.60 104.38,517.00 104.97,517.33 105.61,517.61 106.32,517.82 107.08,517.98 107.91,518.07 108.80,518.10"/>
    </edge>
    <edge id=":A12_7" function="internal">
        <lane id=":A12_7_0" index="0" speed="9.00" length="17.60" width="3.80" shape="101.90,511.20 101.90,528.80"/>
    </edge>
    <edge id=":A12_8" function="internal">
        <lane id=":A12_8_0" index="0" speed="3.48" length="7.47" width="3.80" shape="101.90,511.20 101.85,512.58 101.71,513.86 101.47,515.05 101.14,516.15 100.71,517.14 100.19,518.05 100.00,518.29"/>
    </edge>
    <edge id=":A12_13" function="internal">
        <lane id=":A12_13_0" index="0" speed="3.48" length="9.89" width="3.80" shape="100.00,518.29 99.57,518.86 98.86,519.57 98.05,520.19 97.14,520.71 96.15,521.14 95.05,521.47 93.86,521.71 92.58,521.85 91.20,521.90"/>
    </edge>
    <edge id=":A12_9" function="internal">
        <lane id=":A12_9_0" index="0" speed="2.84" length="11.20" width="3.80" shape="91.20,518.10 92.09,518.07 92.92,517.98 93.68,517.82 94.39,517.61 95.03,517.33 95.62,517.00 96.14,516.60 96.60,516.14 97.00,515.62 97.33,515.03 97.61,514.39 97.82,513.68 97.98,512.92 98.07,512.09 98.10,511.20"/>
    </edge>
    <edge id=":A12_10" function="internal">
        <lane id=":A12_10_0" index="0" speed="9.00" length="17.60" width="3.80" shape="91.20,518.10 108.80,518.10"/>
    </edge>
    <edge id=":A12_11" function="internal">
        <lane id=":A12_11_0" index="0" speed="3.48" length="17.36" width="3.80" shape="91.20,518.10 92.58,518.15 93.86,518.29 95.05,518.53 96.15,518.86 97.14,519.29 98.05,519.81 98.86,520.43 99.57,521.14 100.19,521.95 100.71,522.86 101.14,523.85 101.47,524.95 101.71,526.14 101.85,527.42 101.90,528.80"/>
    </edge>
    <edge id=":A13_0" function="internal">
        <lane id=":A13_0_0" index="0" speed="2.84" length="11.20" width="3.80" shape="98.10,563.80 98.07,562.91 97.98,562.08 97.82,561.32 97.61,560.61 97.33,559.97 97.00,559.38 96.60,558.86 96.14,558.40 95.62,558.00 95.03,557.67 94.39,557.39 93.68,557.18 92.92,557.02 92.09,556.93 91.20,556.90"/>
    </edge>
    <edge id=":A13_1" function="internal">
        <lane id=":A13_1_0" index="0" speed="9.00" length="17.60" width="3.80" shape="98.10,563.80 98.10,546.20"/>
    </edge>
    <edge id=":A13_2" function="internal">
        <lane id=":A13_2_0" index="0" speed="3.48" length="7.47" width="3.80" shape="98.10,563.80 98.15,562.42 98.29,561.14 98.53,559.95 98.86,558.85 99.29,557.86 99.81,556.95 100.00,556.71"/>
    </edge>
    <edge id=":A13_12" function="internal">
        <lane id=":A13_12_0" index="0" speed="3.48" length="9.89" width="3.80" shape="100.00,556.71 100.43,556.14 101.14,555.43 101.95,554.81 102.86,554.29 103.85,553.86 104.95,553.53 106.14,553.29 107.42,553.15 108.80,553.10"/>
    </edge>
    <edge id=":A13_3" function="internal">
        <lane id=":A13_3_0" index="0" speed="2.84" length="11.20" width="3.80" shape="108.80,556.90 107.91,556.93 107.08,557.02 106.32,557.18 105.61,557.39 104.97,557.67 104.38,558.00 103.86,558.40 103.40,558.86 103.00,559.38 102.67,559.97 102.39,560.61 102.18,561.32 102.02,562.08 101.93,562.91 101.90,563.80"/>
    </edge>
    <edge id=":A13_4" function="internal">
        <lane id=":A13_4_0" index="0" speed="9.00" length="17.60" width="3.80" shape="108.80,556.90 91.20,556.90"/>
    </edge>
    <edge id=":A13_5" function="internal">
        <lane id=":A13_5_0" index="0" speed="3.48" length="17.36" width="3.80" shape="108.80,556.90 107.42,556.85 106.14,556.71 104.95,556.47 103.85,556.14 102.86,555.71 101.95,555.19 101.14,554.57 100.43,553.86 99.81,553.05 99.29,552.14 98.86,551.15 98.53,550.05 98.29,548.86 98.15,547.58 98.10,546.20"/>
    </edge>
    <edge id=":A13_6" function="internal">
        <lane id=":A13_6_0" index="0" speed="2.84" length="11.20" width="3.80" shape="101.90,546.20 101.93,547.09 102.02,547.92 102.18,548.68 102.39,549.39 102.67,550.03 103.00,550.62 103.40,551.14 103.86,551.60 104.38,552.00 104.97,552.33 105.61,552.61 106.32,552.82 107.08,552.98 107.91,553.07 108.80,553.10"/>
    </edge>
    <edge id=":A13_7" function="internal">
        <lane id=":A13_7_0" index="0" speed="9.00" length="17.60" width="3.80" shape="101.90,546.20 101.90,563.80"/>
    </edge>
    <edge id=":A13_8" function="internal">
        <lane id=":A13_8_0" index="0" speed="3.48" length="7.47" width="3.80" shape="101.90,546.20 101.85,547.58 101.71,548.86 101.47,550.05 101.14,551.15 100.71,552.14 100.19,553.05 100.00,553.29"/>
    </edge>
    <edge id=":A13_13" function="internal">
        <lane id=":A13_13_0" index="0" speed="3.48" length="9.89" width="3.80" shape="100.00,553.29 99.57,553.86 98.86,554.57 98.05,555.19 97.14,555.71 96.15,556.14 95.05,556.47 93.86,556.71 92.58,556.85 91.20,556.90"/>
    </edge>
    <edge id=":A13_9" function="internal">
        <lane id=":A13_9_0" index="0" speed="2.84" length="11.20" width="3.80" shape="91.20,553.10 92.09,553.07 92.92,552.98 93.68,552.82 94.39,552.61 95.03,552.33 95.62,552.00 96.14,551.60 96.60,551.14 97.00,550.62 97.33,550.03 97.61,549.39 97.82,548.68 97.98,547.92 98.07,547.09 98.10,546.20"/>
    </edge>
    <edge id=":A13_10" function="internal">
        <lane id=":A13_10_0" index="0" speed="9.00" length="17.60" width="3.80" shape="91.20,553.10 108.80,553.10"/>
    </edge>
    <edge id=":A13_11" function="internal">
        <lane id=":A13_11_0" index="0" speed="3.48" length="17.36" width="3.80" shape="91.20,553.10 92.58,553.15 93.86,553.29 95.05,553.53 96.15,553.86 97.14,554.29 98.05,554.81 98.86,555.43 99.57,556.14 100.19,556.95 100.71,557.86 101.14,558.85 101.47,559.95 101.71,561.14 101.85,562.42 101.90,563.80"/>
    </edge>
    <edge id=":A14_0" function="internal">
        <lane id=":A14_0_0" index="0" speed="2.84" length="11.20" width="3.80" shape="98.10,598.80 98.07,597.91 97.98,597.08 97.82,596.32 97.61,595.61 97.33,594.97 97.00,594.38 96.60,593.86 96.14,593.40 95.62,593.00 95.03,592.67 94.39,592.39 93.68,592.18 92.92,592.02 92.09,591.93 91.20,591.90"/>
    </edge>
    <edge id=":A14_1" function="internal">
        <lane id=":A14_1_0" index="0" speed="9.00" length="17.60" width="3.80" shape="98.10,598.80 98.10,581.20"/>
    </edge>
    <edge id=":A14_2" function="internal">
        <lane id=":A14_2_0" index="0" speed="3.48" length="7.47" width="3.80" shape="98.10,598.80 98.15,597.42 98.29,596.14 98.53,594.95 98.86,593.85 99.29,592.86 99.81,591.95 100.00,591.71"/>
    </edge>
    <edge id=":A14_12" function="internal">
        <lane id=":A14_12_0" index="0" speed="3.48" length="9.89" width="3.80" shape="100.00,591.71 100.43,591.14 101.14,590.43 101.95,589.81 102.86,589.29 103.85,588.86 104.95,588.53 106.14,588.29 107.42,588.15 108.80,588.10"/>
    </edge>
    <edge id=":A14_3" function="internal">
        <lane id=":A14_3_0" index="0" speed="2.84" length="11.20" width="3.80" shape="108.80,591.90 107.91,591.93 107.08,592.02 106.32,592.18 105.61,592.39 104.97,592.67 104.38,593.00 103.86,593.40 103.40,593.86 103.00,594.38 102.67,594.97 102.39,595.61 102.18,596.32 102.02,597.08 101.93,597.91 101.90,598.80"/>
    </edge>
    <edge id=":A14_4" function="internal">
        <lane id=":A14_4_0" index="0" speed="9.00" length="17.60" width="3.80" shape="108.80,591.90 91.20,591.90"/>
    </edge>
    <edge id=":A14_5" function="internal">
        <lane id=":A14_5_0" index="0" speed="3.48" length="17.36" width="3.80" shape="108.80,591.90 107.42,591.85 106.14,591.71 104.95,591.47 103.85,591.14 102.86,590.71 101.95,590.19 101.14,589.57 100.43,588.86 99.81,588.05 99.29,587.14 98.86,586.15 98.53,585.05 98.29,583.86 98.15,582.58 98.10,581.20"/>
    </edge>
    <edge id=":A14_6" function="internal">
        <lane id=":A14_6_0" index="0" speed="2.84" length="11.20" width="3.80" shape="101.90,581.20 101.93,582.09 102.02,582.92 102.18,583.68 102.39,584.39 102.67,585.03 103.00,585.62 103.40,586.14 103.86,586.60 104.38,587.00 104.97,587.33 105.61,587.61 106.32,587.82 107.08,587.98 107.91,588.07 108.80,588.10"/>
    </edge>
    <edge id=":A14_7" function="internal">
        <lane id=":A14_7_0" index="0" speed="9.00" length="17.60" width="3.80" shape="101.90,581.20 101.90,598.80"/>
    </edge>
    <edge id=":A14_8" function="internal">
        <lane id=":A14_8_0" index="0" speed="3.48" length="7.47" width="3.80" shape="101.90,581.20 101.85,582.58 101.71,583.86 101.47,585.05 101.14,586.15 100.71,587.14 100.19,588.05 100.00,588.29"/>
    </edge>
    <edge id=":A14_13" function="internal">
        <lane id=":A14_13_0" index="0" speed="3.48" length="9.89" width="3.80" shape="100.00,588.29 99.57,588.86 98.86,589.57 98.05,590.19 97.14,590.71 96.15,591.14 95.05,591.47 93.86,591.71 92.58,591.85 91.20,591.90"/>
    </edge>
    <edge id=":A14_9" function="internal">
        <lane id=":A14_9_0" index="0" speed="2.84" length="11.20" width="3.80" shape="91.20,588.10 92.09,588.07 92.92,587.98 93.68,587.82 94.39,587.61 95.03,587.33 95.62,587.00 96.14,586.60 96.60,586.14 97.00,585.62 97.33,585.03 97.61,584.39 97.82,583.68 97.98,582.92 98.07,582.09 98.10,581.20"/>
    </edge>
    <edge id=":A14_10" function="internal">
        <lane id=":A14_10_0" index="0" speed="9.00" length="17.60" width="3.80" shape="91.20,588.10 108.80,588.10"/>
    </edge>
    <edge id=":A14_11" function="internal">
        <lane id=":A14_11_0" index="0" speed="3.48" length="17.36" width="3.80" shape="91.20,588.10 92.58,588.15 93.86,588.29 95.05,588.53 96.15,588.86 97.14,589.29 98.05,589.81 98.86,590.43 99.57,591.14 100.19,591.95 100.71,592.86 101.14,593.85 101.47,594.95 101.71,596.14 101.85,597.42 101.90,598.80"/>
    </edge>
    <edge id=":A2_0" function="internal">
        <lane id=":A2_0_0" index="0" speed="2.84" length="11.20" width="3.80" shape="98.10,178.80 98.07,177.91 97.98,177.08 97.82,176.32 97.61,175.61 97.33,174.97 97.00,174.38 96.60,173.86 96.14,173.40 95.62,173.00 95.03,172.67 94.39,172.39 93.68,172.18 92.92,172.02 92.09,171.93 91.20,171.90"/>
    </edge>
    <edge id=":A2_1" function="internal">
        <lane id=":A2_1_0" index="0" speed="9.00" length="17.60" width="3.80" shape="98.10,178.80 98.10,161.20"/>
    </edge>
    <edge id=":A2_2" function="internal">
        <lane id=":A2_2_0" index="0" speed="3.48" length="7.47" width="3.80" shape="98.10,178.80 98.15,177.42 98.29,176.14 98.53,174.95 98.86,173.85 99.29,172.86 99.81,171.95 100.00,171.71"/>
    </edge>
    <edge id=":A2_12" function="internal">
        <lane id=":A2_12_0" index="0" speed="3.48" length="9.89" width="3.80" shape="100.00,171.71 100.43,171.14 101.14,170.43 101.95,169.81 102.86,169.29 103.85,168.86 104.95,168.53 106.14,168.29 107.42,168.15 108.80,168.10"/>
    </edge>
    <edge id=":A2_3" function="internal">