<?xml version="1.0" encoding="UTF-8"?>

<!-- generated on Wed Jun 23 13:16:42 2021 by Eclipse SUMO netgenerate Version 1.9.0
<configuration xmlns:xsi="http://www.w3.org/2001/XMLSchema-instance" xsi:noNamespaceSchemaLocation="http://sumo.dlr.de/xsd/netgenerateConfiguration.xsd">

    <grid_network>
        <grid value="true"/>
        <grid.x-number value="6"/>
        <grid.y-number value="7"/>
        <grid.x-length value="90"/>
        <grid.y-length value="90"/>
        <grid.attach-length value="100"/>
    </grid_network>

    <output>
        <alphanumerical-ids value="true"/>
        <output-file value="grid-dooring_block1.net.xml"/>
    </output>

    <building_defaults>
        <default.lanenumber value="1"/>
        <default.lanewidth value="3.8"/>
        <default.speed value="9"/>
        <default.bikelane-width value="1.4"/>
        <default.junctions.radius value="5"/>
        <default-junction-type value="priority"/>
    </building_defaults>

    <junctions>
        <no-turnarounds value="true"/>
        <junctions.corner-detail value="5"/>
        <junctions.internal-link-detail value="16"/>
        <junctions.limit-turn-speed value="0.85"/>
        <junctions.small-radius value="0"/>
    </junctions>

    <bicycle>
        <bikelanes.guess value="true"/>
    </bicycle>

</configuration>
-->

<net version="1.9" junctionCornerDetail="5" junctionLinkDetail="16" limitTurnSpeed="0.85" xmlns:xsi="http://www.w3.org/2001/XMLSchema-instance" xsi:noNamespaceSchemaLocation="http://sumo.dlr.de/xsd/net_file.xsd">

    <location netOffset="0.00,0.00" convBoundary="0.00,0.00,650.00,740.00" origBoundary="0.00,0.00,650.00,740.00" projParameter="!"/>

    <edge id=":A0_0" function="internal">
        <lane id=":A0_0_0" index="0" allow="bicycle" speed="2.20" length="6.98" width="1.40" shape="95.50,108.80 95.48,108.25 95.42,107.73 95.33,107.25 95.19,106.81 95.02,106.41 94.81,106.05 94.56,105.72 94.28,105.44 93.95,105.19 93.59,104.98 93.19,104.81 92.75,104.67 92.27,104.58 91.75,104.52 91.20,104.50"/>
    </edge>
    <edge id=":A0_1" function="internal">
        <lane id=":A0_1_0" index="0" allow="bicycle" speed="9.00" length="17.60" width="1.40" shape="95.50,108.80 95.50,91.20"/>
    </edge>
    <edge id=":A0_2" function="internal">
        <lane id=":A0_2_0" index="0" allow="bicycle" speed="3.68" length="2.94" width="1.40" shape="95.50,108.80 95.59,107.54 95.86,106.27 95.98,105.91"/>
    </edge>
    <edge id=":A0_3" function="internal">
        <lane id=":A0_3_0" index="0" disallow="bicycle" speed="2.84" length="4.77" width="3.80" shape="98.10,108.80 98.07,107.91 97.98,107.08 97.82,106.32 97.61,105.61 97.33,104.97 97.00,104.38 96.90,104.26"/>
    </edge>
    <edge id=":A0_4" function="internal">
        <lane id=":A0_4_0" index="0" disallow="bicycle" speed="9.00" length="17.60" width="3.80" shape="98.10,108.80 98.10,91.20"/>
    </edge>
    <edge id=":A0_5" function="internal">
        <lane id=":A0_5_0" index="0" disallow="bicycle" speed="3.39" length="4.12" width="3.80" shape="98.10,108.80 98.17,107.78 98.39,106.76 98.73,105.75 99.14,104.85"/>
    </edge>
    <edge id=":A0_24" function="internal">
        <lane id=":A0_24_0" index="0" allow="bicycle" speed="3.68" length="17.49" width="1.40" shape="95.98,105.91 96.28,105.01 96.85,103.77 97.55,102.57 98.38,101.41 99.30,100.32 100.32,99.30 101.41,98.38 102.57,97.55 103.77,96.85 105.01,96.28 106.27,95.86 107.54,95.59 108.80,95.50"/>
    </edge>
    <edge id=":A0_25" function="internal">
        <lane id=":A0_25_0" index="0" disallow="bicycle" speed="2.84" length="6.42" width="3.80" shape="96.90,104.26 96.60,103.86 96.14,103.40 95.62,103.00 95.03,102.67 94.39,102.39 93.68,102.18 92.92,102.02 92.09,101.93 91.20,101.90"/>
    </edge>
    <edge id=":A0_26" function="internal">
        <lane id=":A0_26_0" index="0" disallow="bicycle" speed="3.39" length="12.32" width="3.80" shape="99.14,104.85 99.19,104.75 99.75,103.78 100.41,102.85 101.16,101.98 101.98,101.16 102.85,100.41 103.78,99.75 104.75,99.19 105.75,98.73 106.76,98.39 107.78,98.17 108.80,98.10"/>
    </edge>
    <edge id=":A0_6" function="internal">
        <lane id=":A0_6_0" index="0" allow="bicycle" speed="2.20" length="6.98" width="1.40" shape="108.80,104.50 108.25,104.52 107.73,104.58 107.25,104.67 106.81,104.81 106.41,104.98 106.05,105.19 105.72,105.44 105.44,105.72 105.19,106.05 104.98,106.41 104.81,106.81 104.67,107.25 104.58,107.73 104.52,108.25 104.50,108.80"/>
    </edge>
    <edge id=":A0_7" function="internal">
        <lane id=":A0_7_0" index="0" allow="bicycle" speed="9.00" length="17.60" width="1.40" shape="108.80,104.50 91.20,104.50"/>
    </edge>
    <edge id=":A0_8" function="internal">
        <lane id=":A0_8_0" index="0" allow="bicycle" speed="3.68" length="20.44" width="1.40" shape="108.80,104.50 107.54,104.41 106.27,104.14 105.01,103.72 103.77,103.15 102.57,102.45 101.41,101.62 100.32,100.70 99.30,99.68 98.38,98.59 97.55,97.43 96.85,96.23 96.28,94.99 95.86,93.73 95.59,92.46 95.50,91.20"/>
    </edge>
    <edge id=":A0_9" function="internal">
        <lane id=":A0_9_0" index="0" disallow="bicycle" speed="2.84" length="11.20" width="3.80" shape="108.80,101.90 107.91,101.93 107.08,102.02 106.32,102.18 105.61,102.39 104.97,102.67 104.38,103.00 103.86,103.40 103.40,103.86 103.00,104.38 102.67,104.97 102.39,105.61 102.18,106.32 102.02,107.08 101.93,107.91 101.90,108.80"/>
    </edge>
    <edge id=":A0_10" function="internal">
        <lane id=":A0_10_0" index="0" disallow="bicycle" speed="9.00" length="17.60" width="3.80" shape="108.80,101.90 91.20,101.90"/>
    </edge>
    <edge id=":A0_11" function="internal">
        <lane id=":A0_11_0" index="0" disallow="bicycle" speed="3.39" length="16.44" width="3.80" shape="108.80,101.90 107.78,101.83 106.76,101.61 105.75,101.27 104.75,100.81 103.78,100.25 102.85,99.59 101.98,98.84 101.16,98.02 100.41,97.15 99.75,96.22 99.19,95.25 98.73,94.25 98.39,93.24 98.17,92.22 98.10,91.20"/>
    </edge>
    <edge id=":A0_12" function="internal">
        <lane id=":A0_12_0" index="0" allow="bicycle" speed="2.20" length="6.98" width="1.40" shape="104.50,91.20 104.52,91.75 104.58,92.27 104.67,92.75 104.81,93.19 104.98,93.59 105.19,93.95 105.44,94.28 105.72,94.56 106.05,94.81 106.41,95.02 106.81,95.19 107.25,95.33 107.73,95.42 108.25,95.48 108.80,95.50"/>
    </edge>
    <edge id=":A0_13" function="internal">
        <lane id=":A0_13_0" index="0" allow="bicycle" speed="9.00" length="17.60" width="1.40" shape="104.50,91.20 104.50,108.80"/>
    </edge>
    <edge id=":A0_14" function="internal">
        <lane id=":A0_14_0" index="0" allow="bicycle" speed="3.68" length="2.94" width="1.40" shape="104.50,91.20 104.41,92.46 104.14,93.73 104.02,94.09"/>
    </edge>
    <edge id=":A0_15" function="internal">
        <lane id=":A0_15_0" index="0" disallow="bicycle" speed="2.84" length="4.77" width="3.80" shape="101.90,91.20 101.93,92.09 102.02,92.92 102.18,93.68 102.39,94.39 102.67,95.03 103.00,95.62 103.10,95.74"/>
    </edge>
    <edge id=":A0_16" function="internal">
        <lane id=":A0_16_0" index="0" disallow="bicycle" speed="9.00" length="17.60" width="3.80" shape="101.90,91.20 101.90,108.80"/>
    </edge>
    <edge id=":A0_17" function="internal">
        <lane id=":A0_17_0" index="0" disallow="bicycle" speed="3.39" length="4.12" width="3.80" shape="101.90,91.20 101.83,92.22 101.61,93.24 101.27,94.25 100.86,95.15"/>
    </edge>
    <edge id=":A0_27" function="internal">
        <lane id=":A0_27_0" index="0" allow="bicycle" speed="3.68" length="17.49" width="1.40" shape="104.02,94.09 103.72,94.99 103.15,96.23 102.45,97.43 101.62,98.59 100.70,99.68 99.68,100.70 98.59,101.62 97.43,102.45 96.23,103.15 94.99,103.72 93.73,104.14 92.46,104.41 91.20,104.50"/>
    </edge>
    <edge id=":A0_28" function="internal">
        <lane id=":A0_28_0" index="0" disallow="bicycle" speed="2.84" length="6.42" width="3.80" shape="103.10,95.74 103.40,96.14 103.86,96.60 104.38,97.00 104.97,97.33 105.61,97.61 106.32,97.82 107.08,97.98 107.91,98.07 108.80,98.10"/>
    </edge>
    <edge id=":A0_29" function="internal">
        <lane id=":A0_29_0" index="0" disallow="bicycle" speed="3.39" length="12.32" width="3.80" shape="100.86,95.15 100.81,95.25 100.25,96.22 99.59,97.15 98.84,98.02 98.02,98.84 97.15,99.59 96.22,100.25 95.25,100.81 94.25,101.27 93.24,101.61 92.22,101.83 91.20,101.90"/>
    </edge>
    <edge id=":A0_18" function="internal">
        <lane id=":A0_18_0" index="0" allow="bicycle" speed="2.20" length="6.98" width="1.40" shape="91.20,95.50 91.75,95.48 92.27,95.42 92.75,95.33 93.19,95.19 93.59,95.02 93.95,94.81 94.28,94.56 94.56,94.28 94.81,93.95 95.02,93.59 95.19,93.19 95.33,92.75 95.42,92.27 95.48,91.75 95.50,91.20"/>
    </edge>
    <edge id=":A0_19" function="internal">
        <lane id=":A0_19_0" index="0" allow="bicycle" speed="9.00" length="17.60" width="1.40" shape="91.20,95.50 108.80,95.50"/>
    </edge>
    <edge id=":A0_20" function="internal">
        <lane id=":A0_20_0" index="0" allow="bicycle" speed="3.68" length="20.44" width="1.40" shape="91.20,95.50 92.46,95.59 93.73,95.86 94.99,96.28 96.23,96.85 97.43,97.55 98.59,98.38 99.68,99.30 100.70,100.32 101.62,101.41 102.45,102.57 103.15,103.77 103.72,105.01 104.14,106.27 104.41,107.54 104.50,108.80"/>
    </edge>
    <edge id=":A0_21" function="internal">
        <lane id=":A0_21_0" index="0" disallow="bicycle" speed="2.84" length="11.20" width="3.80" shape="91.20,98.10 92.09,98.07 92.92,97.98 93.68,97.82 94.39,97.61 95.03,97.33 95.62,97.00 96.14,96.60 96.60,96.14 97.00,95.62 97.33,95.03 97.61,94.39 97.82,93.68 97.98,92.92 98.07,92.09 98.10,91.20"/>
    </edge>
    <edge id=":A0_22" function="internal">
        <lane id=":A0_22_0" index="0" disallow="bicycle" speed="9.00" length="17.60" width="3.80" shape="91.20,98.10 108.80,98.10"/>
    </edge>
    <edge id=":A0_23" function="internal">
        <lane id=":A0_23_0" index="0" disallow="bicycle" speed="3.39" length="16.44" width="3.80" shape="91.20,98.10 92.22,98.17 93.24,98.39 94.25,98.73 95.25,99.19 96.22,99.75 97.15,100.41 98.02,101.16 98.84,101.98 99.59,102.85 100.25,103.78 100.81,104.75 101.27,105.75 101.61,106.76 101.83,107.78 101.90,108.80"/>
    </edge>
    <edge id=":A1_0" function="internal">
        <lane id=":A1_0_0" index="0" allow="bicycle" speed="2.20" length="6.98" width="1.40" shape="95.50,198.80 95.48,198.25 95.42,197.73 95.33,197.25 95.19,196.81 95.02,196.41 94.81,196.05 94.56,195.72 94.28,195.44 93.95,195.19 93.59,194.98 93.19,194.81 92.75,194.67 92.27,194.58 91.75,194.52 91.20,194.50"/>
    </edge>
    <edge id=":A1_1" function="internal">
        <lane id=":A1_1_0" index="0" allow="bicycle" speed="9.00" length="17.60" width="1.40" shape="95.50,198.80 95.50,181.20"/>
    </edge>
    <edge id=":A1_2" function="internal">
        <lane id=":A1_2_0" index="0" allow="bicycle" speed="3.68" length="2.94" width="1.40" shape="95.50,198.80 95.59,197.54 95.86,196.27 95.98,195.91"/>
    </edge>
    <edge id=":A1_3" function="internal">
        <lane id=":A1_3_0" index="0" disallow="bicycle" speed="2.84" length="4.77" width="3.80" shape="98.10,198.80 98.07,197.91 97.98,197.08 97.82,196.32 97.61,195.61 97.33,194.97 97.00,194.38 96.90,194.26"/>
    </edge>
    <edge id=":A1_4" function="internal">
        <lane id=":A1_4_0" index="0" disallow="bicycle" speed="9.00" length="17.60" width="3.80" shape="98.10,198.80 98.10,181.20"/>
    </edge>
    <edge id=":A1_5" function="internal">
        <lane id=":A1_5_0" index="0" disallow="bicycle" speed="3.39" length="4.12" width="3.80" shape="98.10,198.80 98.17,197.78 98.39,196.76 98.73,195.75 99.14,194.85"/>
    </edge>
    <edge id=":A1_24" function="internal">
        <lane id=":A1_24_0" index="0" allow="bicycle" speed="3.68" length="17.49" width="1.40" shape="95.98,195.91 96.28,195.01 96.85,193.77 97.55,192.57 98.38,191.41 99.30,190.32 100.32,189.30 101.41,188.38 102.57,187.55 103.77,186.85 105.01,186.28 106.27,185.86 107.54,185.59 108.80,185.50"/>
    </edge>
    <edge id=":A1_25" function="internal">
        <lane id=":A1_25_0" index="0" disallow="bicycle" speed="2.84" length="6.42" width="3.80" shape="96.90,194.26 96.60,193.86 96.14,193.40 95.62,193.00 95.03,192.67 94.39,192.39 93.68,192.18 92.92,192.02 92.09,191.93 91.20,191.90"/>
    </edge>
    <edge id=":A1_26" function="internal">
        <lane id=":A1_26_0" index="0" disallow="bicycle" speed="3.39" length="12.32" width="3.80" shape="99.14,194.85 99.19,194.75 99.75,193.78 100.41,192.85 101.16,191.98 101.98,191.16 102.85,190.41 103.78,189.75 104.75,189.19 105.75,188.73 106.76,188.39 107.78,188.17 108.80,188.10"/>
    </edge>
    <edge id=":A1_6" function="internal">
        <lane id=":A1_6_0" index="0" allow="bicycle" speed="2.20" length="6.98" width="1.40" shape="108.80,194.50 108.25,194.52 107.73,194.58 107.25,194.67 106.81,194.81 106.41,194.98 106.05,195.19 105.72,195.44 105.44,195.72 105.19,196.05 104.98,196.41 104.81,196.81 104.67,197.25 104.58,197.73 104.52,198.25 104.50,198.80"/>
    </edge>
    <edge id=":A1_7" function="internal">
        <lane id=":A1_7_0" index="0" allow="bicycle" speed="9.00" length="17.60" width="1.40" shape="108.80,194.50 91.20,194.50"/>
    </edge>
    <edge id=":A1_8" function="internal">
        <lane id=":A1_8_0" index="0" allow="bicycle" speed="3.68" length="20.44" width="1.40" shape="108.80,194.50 107.54,194.41 106.27,194.14 105.01,193.72 103.77,193.15 102.57,192.45 101.41,191.62 100.32,190.70 99.30,189.68 98.38,188.59 97.55,187.43 96.85,186.23 96.28,184.99 95.86,183.73 95.59,182.46 95.50,181.20"/>
    </edge>
    <edge id=":A1_9" function="internal">
        <lane id=":A1_9_0" index="0" disallow="bicycle" speed="2.84" length="11.20" width="3.80" shape="108.80,191.90 107.91,191.93 107.08,192.02 106.32,192.18 105.61,192.39 104.97,192.67 104.38,193.00 103.86,193.40 103.40,193.86 103.00,194.38 102.67,194.97 102.39,195.61 102.18,196.32 102.02,197.08 101.93,197.91 101.90,198.80"/>
    </edge>
    <edge id=":A1_10" function="internal">
        <lane id=":A1_10_0" index="0" disallow="bicycle" speed="9.00" length="17.60" width="3.80" shape="108.80,191.90 91.20,191.90"/>
    </edge>
    <edge id=":A1_11" function="internal">
        <lane id=":A1_11_0" index="0" disallow="bicycle" speed="3.39" length="16.44" width="3.80" shape="108.80,191.90 107.78,191.83 106.76,191.61 105.75,191.27 104.75,190.81 103.78,190.25 102.85,189.59 101.98,188.84 101.16,188.02 100.41,187.15 99.75,186.22 99.19,185.25 98.73,184.25 98.39,183.24 98.17,182.22 98.10,181.20"/>
    </edge>
    <edge id=":A1_12" function="internal">
        <lane id=":A1_12_0" index="0" allow="bicycle" speed="2.20" length="6.98" width="1.40" shape="104.50,181.20 104.52,181.75 104.58,182.27 104.67,182.75 104.81,183.19 104.98,183.59 105.19,183.95 105.44,184.28 105.72,184.56 106.05,184.81 106.41,185.02 106.81,185.19 107.25,185.33 107.73,185.42 108.25,185.48 108.80,185.50"/>
    </edge>
    <edge id=":A1_13" function="internal">
        <lane id=":A1_13_0" index="0" allow="bicycle" speed="9.00" length="17.60" width="1.40" shape="104.50,181.20 104.50,198.80"/>
    </edge>
    <edge id=":A1_14" function="internal">
        <lane id=":A1_14_0" index="0" allow="bicycle" speed="3.68" length="2.94" width="1.40" shape="104.50,181.20 104.41,182.46 104.14,183.73 104.02,184.09"/>
    </edge>
    <edge id=":A1_15" function="internal">
        <lane id=":A1_15_0" index="0" disallow="bicycle" speed="2.84" length="4.77" width="3.80" shape="101.90,181.20 101.93,182.09 102.02,182.92 102.18,183.68 102.39,184.39 102.67,185.03 103.00,185.62 103.10,185.74"/>
    </edge>
    <edge id=":A1_16" function="internal">
        <lane id=":A1_16_0" index="0" disallow="bicycle" speed="9.00" length="17.60" width="3.80" shape="101.90,181.20 101.90,198.80"/>
    </edge>
    <edge id=":A1_17" function="internal">
        <lane id=":A1_17_0" index="0" disallow="bicycle" speed="3.39" length="4.12" width="3.80" shape="101.90,181.20 101.83,182.22 101.61,183.24 101.27,184.25 100.86,185.15"/>
    </edge>
    <edge id=":A1_27" function="internal">
        <lane id=":A1_27_0" index="0" allow="bicycle" speed="3.68" length="17.49" width="1.40" shape="104.02,184.09 103.72,184.99 103.15,186.23 102.45,187.43 101.62,188.59 100.70,189.68 99.68,190.70 98.59,191.62 97.43,192.45 96.23,193.15 94.99,193.72 93.73,194.14 92.46,194.41 91.20,194.50"/>
    </edge>
    <edge id=":A1_28" function="internal">
        <lane id=":A1_28_0" index="0" disallow="bicycle" speed="2.84" length="6.42" width="3.80" shape="103.10,185.74 103.40,186.14 103.86,186.60 104.38,187.00 104.97,187.33 105.61,187.61 106.32,187.82 107.08,187.98 107.91,188.07 108.80,188.10"/>
    </edge>
    <edge id=":A1_29" function="internal">
        <lane id=":A1_29_0" index="0" disallow="bicycle" speed="3.39" length="12.32" width="3.80" shape="100.86,185.15 100.81,185.25 100.25,186.22 99.59,187.15 98.84,188.02 98.02,188.84 97.15,189.59 96.22,190.25 95.25,190.81 94.25,191.27 93.24,191.61 92.22,191.83 91.20,191.90"/>
    </edge>
    <edge id=":A1_18" function="internal">
        <lane id=":A1_18_0" index="0" allow="bicycle" speed="2.20" length="6.98" width="1.40" shape="91.20,185.50 91.75,185.48 92.27,185.42 92.75,185.33 93.19,185.19 93.59,185.02 93.95,184.81 94.28,184.56 94.56,184.28 94.81,183.95 95.02,183.59 95.19,183.19 95.33,182.75 95.42,182.27 95.48,181.75 95.50,181.20"/>
    </edge>
    <edge id=":A1_19" function="internal">
        <lane id=":A1_19_0" index="0" allow="bicycle" speed="9.00" length="17.60" width="1.40" shape="91.20,185.50 108.80,185.50"/>
    </edge>
    <edge id=":A1_20" function="internal">
        <lane id=":A1_20_0" index="0" allow="bicycle" speed="3.68" length="20.44" width="1.40" shape="91.20,185.50 92.46,185.59 93.73,185.86 94.99,186.28 96.23,186.85 97.43,187.55 98.59,188.38 99.68,189.30 100.70,190.32 101.62,191.41 102.45,192.57 103.15,193.77 103.72,195.01 104.14,196.27 104.41,197.54 104.50,198.80"/>
    </edge>
    <edge id=":A1_21" function="internal">
        <lane id=":A1_21_0" index="0" disallow="bicycle" speed="2.84" length="11.20" width="3.80" shape="91.20,188.10 92.09,188.07 92.92,187.98 93.68,187.82 94.39,187.61 95.03,187.33 95.62,187.00 96.14,186.60 96.60,186.14 97.00,185.62 97.33,185.03 97.61,184.39 97.82,183.68 97.98,182.92 98.07,182.09 98.10,181.20"/>
    </edge>
    <edge id=":A1_22" function="internal">
        <lane id=":A1_22_0" index="0" disallow="bicycle" speed="9.00" length="17.60" width="3.80" shape="91.20,188.10 108.80,188.10"/>
    </edge>
    <edge id=":A1_23" function="internal">
        <lane id=":A1_23_0" index="0" disallow="bicycle" speed="3.39" length="16.44" width="3.80" shape="91.20,188.10 92.22,188.17 93.24,188.39 94.25,188.73 95.25,189.19 96.22,189.75 97.15,190.41 98.02,191.16 98.84,191.98 99.59,192.85 100.25,193.78 100.81,194.75 101.27,195.75 101.61,196.76 101.83,197.78 101.90,198.80"/>
    </edge>
    <edge id=":A2_0" function="internal">
        <lane id=":A2_0_0" index="0" allow="bicycle" speed="2.20" length="6.98" width="1.40" shape="95.50,288.80 95.48,288.25 95.42,287.73 95.33,287.25 95.19,286.81 95.02,286.41 94.81,286.05 94.56,285.72 94.28,285.44 93.95,285.19 93.59,284.98 93.19,284.81 92.75,284.67 92.27,284.58 91.75,284.52 91.20,284.50"/>
    </edge>
    <edge id=":A2_1" function="internal">
        <lane id=":A2_1_0" index="0" allow="bicycle" speed="9.00" length="17.60" width="1.40" shape="95.50,288.80 95.50,271.20"/>
    </edge>
    <edge id=":A2_2" function="internal">
        <lane id=":A2_2_0" index="0" allow="bicycle" speed="3.68" length="2.94" width="1.40" shape="95.50,288.80 95.59,287.54 95.86,286.27 95.98,285.91"/>
    </edge>
    <edge id=":A2_3" function="internal">
        <lane id=":A2_3_0" index="0" disallow="bicycle" speed="2.84" length="4.77" width="3.80" shape="98.10,288.80 98.07,287.91 97.98,287.08 97.82,286.32 97.61,285.61 97.33,284.97 97.00,284.38 96.90,284.26"/>
    </edge>
    <edge id=":A2_4" function="internal">
        <lane id=":A2_4_0" index="0" disallow="bicycle" speed="9.00" length="17.60" width="3.80" shape="98.10,288.80 98.10,271.20"/>
    </edge>
    <edge id=":A2_5" function="internal">
        <lane id=":A2_5_0" index="0" disallow="bicycle" speed="3.39" length="4.12" width="3.80" shape="98.10,288.80 98.17,287.78 98.39,286.76 98.73,285.75 99.14,284.85"/>
    </edge>
    <edge id=":A2_24" function="internal">
        <lane id=":A2_24_0" index="0" allow="bicycle" speed="3.68" length="17.49" width="1.40" shape="95.98,285.91 96.28,285.01 96.85,283.77 97.55,282.57 98.38,281.41 99.30,280.32 100.32,279.30 101.41,278.38 102.57,277.55 103.77,276.85 105.01,276.28 106.27,275.86 107.54,275.59 108.80,275.50"/>
    </edge>
    <edge id=":A2_25" function="internal">
        <lane id=":A2_25_0" index="0" disallow="bicycle" speed="2.84" length="6.42" width="3.80" shape="96.90,284.26 96.60,283.86 96.14,283.40 95.62,283.00 95.03,282.67 94.39,282.39 93.68,282.18 92.92,282.02 92.09,281.93 91.20,281.90"/>
    </edge>
    <edge id=":A2_26" function="internal">
        <lane id=":A2_26_0" index="0" disallow="bicycle" speed="3.39" length="12.32" width="3.80" shape="99.14,284.85 99.19,284.75 99.75,283.78 100.41,282.85 101.16,281.98 101.98,281.16 102.85,280.41 103.78,279.75 104.75,279.19 105.75,278.73 106.76,278.39 107.78,278.17 108.80,278.10"/>
    </edge>
    <edge id=":A2_6" function="internal">
        <lane id=":A2_6_0" index="0" allow="bicycle" speed="2.20" length="6.98" width="1.40" shape="108.80,284.50 108.25,284.52 107.73,284.58 107.25,284.67 106.81,284.81 106.41,284.98 106.05,285.19 105.72,285.44 105.44,285.72 105.19,286.05 104.98,286.41 104.81,286.81 104.67,287.25 104.58,287.73 104.52,288.25 104.50,288.80"/>
    </edge>
    <edge id=":A2_7" function="internal">
        <lane id=":A2_7_0" index="0" allow="bicycle" speed="9.00" length="17.60" width="1.40" shape="108.80,284.50 91.20,284.50"/>
    </edge>
    <edge id=":A2_8" function="internal">
        <lane id=":A2_8_0" index="0" allow="bicycle" speed="3.68" length="20.44" width="1.40" shape="108.80,284.50 107.54,284.41 106.27,284.14 105.01,283.72 103.77,283.15 102.57,282.45 101.41,281.62 100.32,280.70 99.30,279.68 98.38,278.59 97.55,277.43 96.85,276.23 96.28,274.99 95.86,273.73 95.59,272.46 95.50,271.20"/>
    </edge>
    <edge id=":A2_9" function="internal">
        <lane id=":A2_9_0" index="0" disallow="bicycle" speed="2.84" length="11.20" width="3.80" shape="108.80,281.90 107.91,281.93 107.08,282.02 106.32,282.18 105.61,282.39 104.97,282.67 104.38,283.00 103.86,283.40 103.40,283.86 103.00,284.38 102.67,284.97 102.39,285.61 102.18,286.32 102.02,287.08 101.93,287.91 101.90,288.80"/>
    </edge>
    <edge id=":A2_10" function="internal">
        <lane id=":A2_10_0" index="0" disallow="bicycle" speed="9.00" length="17.60" width="3.80" shape="108.80,281.90 91.20,281.90"/>
    </edge>
    <edge id=":A2_11" function="internal">
        <lane id=":A2_11_0" index="0" disallow="bicycle" speed="3.39" length="16.44" width="3.80" shape="108.80,281.90 107.78,281.83 106.76,281.61 105.75,281.27 104.75,280.81 103.78,280.25 102.85,279.59 101.98,278.84 101.16,278.02 100.41,277.15 99.75,276.22 99.19,275.25 98.73,274.25 98.39,273.24 98.17,272.22 98.10,271.20"/>
    </edge>
    <edge id=":A2_12" function="internal">
        <lane id=":A2_12_0" index="0" allow="bicycle" speed="2.20" length="6.98" width="1.40" shape="104.50,271.20 104.52,271.75 104.58,272.27 104.67,272.75 104.81,273.19 104.98,273.59 105.19,273.95 105.44,274.28 105.72,274.56 106.05,274.81 106.41,275.02 106.81,275.19 107.25,275.33 107.73,275.42 108.25,275.48 108.80,275.50"/>
    </edge>
    <edge id=":A2_13" function="internal">
        <lane id=":A2_13_0" index="0" allow="bicycle" speed="9.00" length="17.60" width="1.40" shape="104.50,271.20 104.50,288.80"/>
    </edge>
    <edge id=":A2_14" function="internal">
        <lane id=":A2_14_0" index="0" allow="bicycle" speed="3.68" length="2.94" width="1.40" shape="104.50,271.20 104.41,272.46 104.14,273.73 104.02,274.09"/>
    </edge>
    <edge id=":A2_15" function="internal">
        <lane id=":A2_15_0" index="0" disallow="bicycle" speed="2.84" length="4.77" width="3.80" shape="101.90,271.20 101.93,272.09 102.02,272.92 102.18,273.68 102.39,274.39 102.67,275.03 103.00,275.62 103.10,275.74"/>
    </edge>
    <edge id=":A2_16" function="internal">
        <lane id=":A2_16_0" index="0" disallow="bicycle" speed="9.00" length="17.60" width="3.80" shape="101.90,271.20 101.90,288.80"/>
    </edge>
    <edge id=":A2_17" function="internal">
        <lane id=":A2_17_0" index="0" disallow="bicycle" speed="3.39" length="4.12" width="3.80" shape="101.90,271.20 101.83,272.22 101.61,273.24 101.27,274.25 100.86,275.15"/>
    </edge>
    <edge id=":A2_27" function="internal">
        <lane id=":A2_27_0" index="0" allow="bicycle" speed="3.68" length="17.49" width="1.40" shape="104.02,274.09 103.72,274.99 103.15,276.23 102.45,277.43 101.62,278.59 100.70,279.68 99.68,280.70 98.59,281.62 97.43,282.45 96.23,283.15 94.99,283.72 93.73,284.14 92.46,284.41 91.20,284.50"/>
    </edge>
    <edge id=":A2_28" function="internal">
        <lane id=":A2_28_0" index="0" disallow="bicycle" speed="2.84" length="6.42" width="3.80" shape="103.10,275.74 103.40,276.14 103.86,276.60 104.38,277.00 104.97,277.33 105.61,277.61 106.32,277.82 107.08,277.98 107.91,278.07 108.80,278.10"/>
    </edge>
    <edge id=":A2_29" function="internal">
        <lane id=":A2_29_0" index="0" disallow="bicycle" speed="3.39" length="12.32" width="3.80" shape="100.86,275.15 100.81,275.25 100.25,276.22 99.59,277.15 98.84,278.02 98.02,278.84 97.15,279.59 96.22,280.25 95.25,280.81 94.25,281.27 93.24,281.61 92.22,281.83 91.20,281.90"/>
    </edge>
    <edge id=":A2_18" function="internal">
        <lane id=":A2_18_0" index="0" allow="bicycle" speed="2.20" length="6.98" width="1.40" shape="91.20,275.50 91.75,275.48 92.27,275.42 92.75,275.33 93.19,275.19 93.59,275.02 93.95,274.81 94.28,274.56 94.56,274.28 94.81,273.95 95.02,273.59 95.19,273.19 95.33,272.75 95.42,272.27 95.48,271.75 95.50,271.20"/>
    </edge>
    <edge id=":A2_19" function="internal">
        <lane id=":A2_19_0" index="0" allow="bicycle" speed="9.00" length="17.60" width="1.40" shape="91.20,275.50 108.80,275.50"/>
    </edge>
    <edge id=":A2_20" function="internal">
        <lane id=":A2_20_0" index="0" allow="bicycle" speed="3.68" length="20.44" width="1.40" shape="91.20,275.50 92.46,275.59 93.73,275.86 94.99,276.28 96.23,276.85 97.43,277.55 98.59,278.38 99.68,279.30 100.70,280.32 101.62,281.41 102.45,282.57 103.15,283.77 103.72,285.01 104.14,286.27 104.41,287.54 104.50,288.80"/>
    </edge>
    <edge id=":A2_21" function="internal">
        <lane id=":A2_21_0" index="0" disallow="bicycle" speed="2.84" length="11.20" width="3.80" shape="91.20,278.10 92.09,278.07 92.92,277.98 93.68,277.82 94.39,277.61 95.03,277.33 95.62,277.00 96.14,276.60 96.60,276.14 97.00,275.62 97.33,275.03 97.61,274.39 97.82,273.68 97.98,272.92 98.07,272.09 98.10,271.20"/>
    </edge>
    <edge id=":A2_22" function="internal">
        <lane id=":A2_22_0" index="0" disallow="bicycle" speed="9.00" length="17.60" width="3.80" shape="91.20,278.10 108.80,278.10"/>
    </edge>
    <edge id=":A2_23" function="internal">
        <lane id=":A2_23_0" index="0" disallow="bicycle" speed="3.39" length="16.44" width="3.80" shape="91.20,278.10 92.22,278.17 93.24,278.39 94.25,278.73 95.25,279.19 96.22,279.75 97.15,280.41 98.02,281.16 98.84,281.98 99.59,282.85 100.25,283.78 100.81,284.75 101.27,285.75 101.61,286.76 101.83,287.78 101.90,288.80"/>
    </edge>
    <edge id=":A3_0" function="internal">
        <lane id=":A3_0_0" index="0" allow="bicycle" speed="2.20" length="6.98" width="1.40" shape="95.50,378.80 95.48,378.25 95.42,377.73 95.33,377.25 95.19,376.81 95.02,376.41 94.81,376.05 94.56,375.72 94.28,375.44 93.95,375.19 93.59,374.98 93.19,374.81 92.75,374.67 92.27,374.58 91.75,374.52 91.20,374.50"/>
    </edge>
    <edge id=":A3_1" function="internal">
        <lane id=":A3_1_0" index="0" allow="bicycle" speed="9.00" length="17.60" width="1.40" shape="95.50,378.80 95.50,361.20"/>
    </edge>
    <edge id=":A3_2" function="internal">
        <lane id=":A3_2_0" index="0" allow="bicycle" speed="3.68" length="2.94" width="1.40" shape="95.50,378.80 95.59,377.54 95.86,376.27 95.98,375.91"/>
    </edge>
    <edge id=":A3_3" function="internal">
        <lane id=":A3_3_0" index="0" disallow="bicycle" speed="2.84" length="4.77" width="3.80" shape="98.10,378.80 98.07,377.91 97.98,377.08 97.82,376.32 97.61,375.61 97.33,374.97 97.00,374.38 96.90,374.26"/>
    </edge>
    <edge id=":A3_4" function="internal">
        <lane id=":A3_4_0" index="0" disallow="bicycle" speed="9.00" length="17.60" width="3.80" shape="98.10,378.80 98.10,361.20"/>
    </edge>
    <edge id=":A3_5" function="internal">
        <lane id=":A3_5_0" index="0" disallow="bicycle" speed="3.39" length="4.12" width="3.80" shape="98.10,378.80 98.17,377.78 98.39,376.76 98.73,375.75 99.14,374.85"/>
    </edge>
    <edge id=":A3_24" function="internal">
        <lane id=":A3_24_0" index="0" allow="bicycle" speed="3.68" length="17.49" width="1.40" shape="95.98,375.91 96.28,375.01 96.85,373.77 97.55,372.57 98.38,371.41 99.30,370.32 100.32,369.30 101.41,368.38 102.57,367.55 103.77,366.85 105.01,366.28 106.27,365.86 107.54,365.59 108.80,365.50"/>
    </edge>
    <edge id=":A3_25" function="internal">
        <lane id=":A3_25_0" index="0" disallow="bicycle" speed="2.84" length="6.42" width="3.80" shape="96.90,374.26 96.60,373.86 96.14,373.40 95.62,373.00 95.03,372.67 94.39,372.39 93.68,372.18 92.92,372.02 92.09,371.93 91.20,371.90"/>
    </edge>
    <edge id=":A3_26" function="internal">
        <lane id=":A3_26_0" index="0" disallow="bicycle" speed="3.39" length="12.32" width="3.80" shape="99.14,374.85 99.19,374.75 99.75,373.78 100.41,372.85 101.16,371.98 101.98,371.16 102.85,370.41 103.78,369.75 104.75,369.19 105.75,368.73 106.76,368.39 107.78,368.17 108.80,368.10"/>
    </edge>
    <edge id=":A3_6" function="internal">