<?xml version='1.0' encoding='ISO-8859-1'?>
<additional>
  <poly id="0" type="building" color="0.7,0.3,0.1" fill="1" layer="4" shape="108,108 108,127 127,127 127,108"/>
  <poly id="1" type="building" color="0.7,0.3,0.1" fill="1" layer="4" shape="143,108 143,127 162,127 162,108"/>
  <poly id="2" type="building" color="0.7,0.3,0.1" fill="1" layer="4" shape="178,108 178,127 197,127 197,108"/>
  <poly id="3" type="building" color="0.7,0.3,0.1" fill="1" layer="4" shape="213,108 213,127 232,127 232,108"/>
  <poly id="4" type="building" color="0.7,0.3,0.1" fill="1" layer="4" shape="248,108 248,127 267,127 267,108"/>
  <poly id="5" type="building" color="0.7,0.3,0.1" fill="1" layer="4" shape="283,108 283,127 302,127 302,108"/>
  <poly id="6" type="building" color="0.7,0.3,0.1" fill="1" layer="4" shape="318,108 318,127 337,127 337,108"/>
  <poly id="7" type="building" color="0.7,0.3,0.1" fill="1" layer="4" shape="353,108 353,127 372,127 372,108"/>
  <poly id="8" type="building" color="0.7,0.3,0.1" fill="1" layer="4" shape="388,108 388,127 407,127 407,108"/>
  <poly id="9" type="building" color="0.7,0.3,0.1" fill="1" layer="4" shape="423,108 423,127 442,127 442,108"/>
  <poly id="10" type="building" color="0.7,0.3,0.1" fill="1" layer="4" shape="458,108 458,127 477,127 477,108"/>
  <poly id="11" type="building" color="0.7,0.3,0.1" fill="1" layer="4" shape="493,108 493,127 512,127 512,108"/>
  <poly id="12" type="building" color="0.7,0.3,0.1" fill="1" layer="4" shape="528,108 528,127 547,127 547,108"/>
  <poly id="13" type="building" color="0.7,0.3,0.1" fill="1" layer="4" shape="563,108 563,127 582,127 582,108"/>
  <poly id="14" type="building" color="0.7,0.3,0.1" fill="1" layer="4" shape="108,143 108,162 127,162 127,143"/>
  <poly id="15" type="building" color="0.7,0.3,0.1" fill="1" layer="4" shape="143,143 143,162 162,162 162,143"/>
  <poly id="16" type="building" color="0.7,0.3,0.1" fill="1" layer="4" shape="178,143 178,162 197,162 197,143"/>
  <poly id="17" type="building" color="0.7,0.3,0.1" fill="1" layer="4" shape="213,143 213,162 232,162 232,143"/>
  <poly id="18" type="building" color="0.7,0.3,0.1" fill="1" layer="4" shape="248,143 248,162 267,162 267,143"/>
  <poly id="19" type="building" color="0.7,0.3,0.1" fill="1" layer="4" shape="283,143 283,162 302,162 302,143"/>
  <poly id="20" type="building" color="0.7,0.3,0.1" fill="1" layer="4" shape="318,143 318,162 337,162 337,143"/>
  <poly id="21" type="building" color="0.7,0.3,0.1" fill="1" layer="4" shape="353,143 353,162 372,162 372,143"/>
  <poly id="22" type="building" color="0.7,0.3,0.1" fill="1" layer="4" shape="388,143 388,162 407,162 407,143"/>
  <poly id="23" type="building" color="0.7,0.3,0.1" fill="1" layer="4" shape="423,143 423,162 442,162 442,143"/>
  <poly id="24" type="building" color="0.7,0.3,0.1" fill="1" layer="4" shape="458,143 458,162 477,162 477,143"/>
  <poly id="25" type="building" color="0.7,0.3,0.1" fill="1" layer="4" shape="493,143 493,162 512,162 512,143"/>
  <poly id="26" type="building" color="0.7,0.3,0.1" fill="1" layer="4" shape="528,143 528,162 547,162 547,143"/>
  <poly id="27" type="building" color="0.7,0.3,0.1" fill="1" layer="4" shape="563,143 563,162 582,162 582,143"/>
  <poly id="28" type="building" color="0.7,0.3,0.1" fill="1" layer="4" shape="108,178 108,197 127,197 127,178"/>
  <poly id="29" type="building" color="0.7,0.3,0.1" fill="1" layer="4" shape="143,178 143,197 162,197 162,178"/>
  <poly id="30" type="building" color="0.7,0.3,0.1" fill="1" layer="4" shape="178,178 178,197 197,197 197,178"/>
  <poly id="31" type="building" color="0.7,0.3,0.1" fill="1" layer="4" shape="213,178 213,197 232,197 232,178"/>
  <poly id="32" type="building" color="0.7,0.3,0.1" fill="1" layer="4" shape="248,178 248,197 267,197 267,178"/>
  <poly id="33" type="building" color="0.7,0.3,0.1" fill="1" layer="4" shape="283,178 283,197 302,197 302,178"/>
  <poly id="34" type="building" color="0.7,0.3,0.1" fill="1" layer="4" shape="318,178 318,197 337,197 337,178"/>
  <poly id="35" type="building" color="0.7,0.3,0.1" fill="1" layer="4" shape="353,178 353,197 372,197 372,178"/>
  <poly id="36" type="building" color="0.7,0.3,0.1" fill="1" layer="4" shape="388,178 388,197 407,197 407,178"/>
  <poly id="37" type="building" color="0.7,0.3,0.1" fill="1" layer="4" shape="423,178 423,197 442,197 442,178"/>
  <poly id="38" type="building" color="0.7,0.3,0.1" fill="1" layer="4" shape="458,178 458,197 477,197 477,178"/>
  <poly id="39" type="building" color="0.7,0.3,0.1" fill="1" layer="4" shape="493,178 493,197 512,197 512,178"/>
  <poly id="40" type="building" color="0.7,0.3,0.1" fill="1" layer="4" shape="528,178 528,197 547,197 547,178"/>
  <poly id="41" type="building" color="0.7,0.3,0.1" fill="1" layer="4" shape="563,178 563,197 582,197 582,178"/>
  <poly id="42" type="building" color="0.7,0.3,0.1" fill="1" layer="4" shape="108,213 108,232 127,232 127,213"/>
  <poly id="43" type="building" color="0.7,0.3,0.1" fill="1" layer="4" shape="143,213 143,232 162,232 162,213"/>
  <poly id="44" type="building" color="0.7,0.3,0.1" fill="1" layer="4" shape="178,213 178,232 197,232 197,213"/>
  <poly id="45" type="building" color="0.7,0.3,0.1" fill="1" layer="4" shape="213,213 213,232 232,232 232,213"/>
  <poly id="46" type="building" color="0.7,0.3,0.1" fill="1" layer="4" shape="248,213 248,232 267,232 267,213"/>
  <poly id="47" type="building" color="0.7,0.3,0.1" fill="1" layer="4" shape="283,213 283,232 302,232 302,213"/>
  <poly id="48" type="building" color="0.7,0.3,0.1" fill="1" layer="4" shape="318,213 318,232 337,232 337,213"/>
  <poly id="49" type="building" color="0.7,0.3,0.1" fill="1" layer="4" shape="353,213 353,232 372,232 372,213"/>
  <poly id="50" type="building" color="0.7,0.3,0.1" fill="1" layer="4" shape="388,213 388,232 407,232 407,213"/>
  <poly id="51" type="building" color="0.7,0.3,0.1" fill="1" layer="4" shape="423,213 423,232 442,232 442,213"/>
  <poly id="52" type="building" color="0.7,0.3,0.1" fill="1" layer="4" shape="458,213 458,232 477,232 477,213"/>
  <poly id="53" type="building" color="0.7,0.3,0.1" fill="1" layer="4" shape="493,213 493,232 512,232 512,213"/>
  <poly id="54" type="building" color="0.7,0.3,0.1" fill="1" layer="4" shape="528,213 528,232 547,232 547,213"/>
  <poly id="55" type="building" color="0.7,0.3,0.1" fill="1" layer="4" shape="563,213 563,232 582,232 582,213"/>
  <poly id="56" type="building" color="0.7,0.3,0.1" fill="1" layer="4" shape="108,248 108,267 127,267 127,248"/>
  <poly id="57" type="building" color="0.7,0.3,0.1" fill="1" layer="4" shape="143,248 143,267 162,267 162,248"/>
  <poly id="58" type="building" color="0.7,0.3,0.1" fill="1" layer="4" shape="178,248 178,267 197,267 197,248"/>
  <poly id="59" type="building" color="0.7,0.3,0.1" fill="1" layer="4" shape="213,248 213,267 232,267 232,248"/>
  <poly id="60" type="building" color="0.7,0.3,0.1" fill="1" layer="4" shape="248,248 248,267 267,267 267,248"/>
  <poly id="61" type="building" color="0.7,0.3,0.1" fill="1" layer="4" shape="283,248 283,267 302,267 302,248"/>
  <poly id="62" type="building" color="0.7,0.3,0.1" fill="1" layer="4" shape="318,248 318,267 337,267 337,248"/>
  <poly id="63" type="building" color="0.7,0.3,0.1" fill="1" layer="4" shape="353,248 353,267 372,267 372,248"/>
  <poly id="64" type="building" color="0.7,0.3,0.1" fill="1" layer="4" shape="388,248 388,267 407,267 407,248"/>
  <poly id="65" type="building" color="0.7,0.3,0.1" fill="1" layer="4" shape="423,248 423,267 442,267 442,248"/>
  <poly id="66" type="building" color="0.7,0.3,0.1" fill="1" layer="4" shape="458,248 458,267 477,267 477,248"/>
  <poly id="67" type="building" color="0.7,0.3,0.1" fill="1" layer="4" shape="493,248 493,267 512,267 512,248"/>
  <poly id="68" type="building" color="0.7,0.3,0.1" fill="1" layer="4" shape="528,248 528,267 547,267 547,248"/>
  <poly id="69" type="building" color="0.7,0.3,0.1" fill="1" layer="4" shape="563,248 563,267 582,267 582,248"/>
  <poly id="70" type="building" color="0.7,0.3,0.1" fill="1" layer="4" shape="108,283 108,302 127,302 127,283"/>
  <poly id="71" type="building" color="0.7,0.3,0.1" fill="1" layer="4" shape="143,283 143,302 162,302 162,283"/>
  <poly id="72" type="building" color="0.7,0.3,0.1" fill="1" layer="4" shape="178,283 178,302 197,302 197,283"/>
  <poly id="73" type="building" color="0.7,0.3,0.1" fill="1" layer="4" shape="213,283 213,302 232,302 232,283"/>
  <poly id="74" type="building" color="0.7,0.3,0.1" fill="1" layer="4" shape="248,283 248,302 267,302 267,283"/>
  <poly id="75" type="building" color="0.7,0.3,0.1" fill="1" layer="4" shape="283,283 283,302 302,302 302,283"/>
  <poly id="76" type="building" color="0.7,0.3,0.1" fill="1" layer="4" shape="318,283 318,302 337,302 337,283"/>
  <poly id="77" type="building" color="0.7,0.3,0.1" fill="1" layer="4" shape="353,283 353,302 372,302 372,283"/>
  <poly id="78" type="building" color="0.7,0.3,0.1" fill="1" layer="4" shape="388,283 388,302 407,302 407,283"/>
  <poly id="79" type="building" color="0.7,0.3,0.1" fill="1" layer="4" shape="423,283 423,302 442,302 442,283"/>
  <poly id="80" type="building" color="0.7,0.3,0.1" fill="1" layer="4" shape="458,283 458,302 477,302 477,283"/>
  <poly id="81" type="building" color="0.7,0.3,0.1" fill="1" layer="4" shape="493,283 493,302 512,302 512,283"/>
  <poly id="82" type="building" color="0.7,0.3,0.1" fill="1" layer="4" shape="528,283 528,302 547,302 547,283"/>
  <poly id="83" type="building" color="0.7,0.3,0.1" fill="1" layer="4" shape="563,283 563,302 582,302 582,283"/>
  <poly id="84" type="building" color="0.7,0.3,0.1" fill="1" layer="4" shape="108,318 108,337 127,337 127,318"/>
  <poly id="85" type="building" color="0.7,0.3,0.1" fill="1" layer="4" shape="143,318 143,337 162,337 162,318"/>
  <poly id="86" type="building" color="0.7,0.3,0.1" fill="1" layer="4" shape="178,318 178,337 197,337 197,318"/>
  <poly id="87" type="building" color="0.7,0.3,0.1" fill="1" layer="4" shape="213,318 213,337 232,337 232,318"/>
  <poly id="88" type="building" color="0.7,0.3,0.1" fill="1" layer="4" shape="248,318 248,337 267,337 267,318"/>
  <poly id="89" type="building" color="0.7,0.3,0.1" fill="1" layer="4" shape="283,318 283,337 302,337 302,318"/>
  <poly id="90" type="building" color="0.7,0.3,0.1" fill="1" layer="4" shape="318,318 318,337 337,337 337,318"/>
  <poly id="91" type="building" color="0.7,0.3,0.1" fill="1" layer="4" shape="353,318 353,337 372,337 372,318"/>
  <poly id="92" type="building" color="0.7,0.3,0.1" fill="1" layer="4" shape="388,318 388,337 407,337 407,318"/>
  <poly id="93" type="building" color="0.7,0.3,0.1" fill="1" layer="4" shape="423,318 423,337 442,337 442,318"/>
  <poly id="94" type="building" color="0.7,0.3,0.1" fill="1" layer="4" shape="458,318 458,337 477,337 477,318"/>
  <poly id="95" type="building" color="0.7,0.3,0.1" fill="1" layer="4" shape="493,318 493,337 512,337 512,318"/>
  <poly id="96" type="building" color="0.7,0.3,0.1" fill="1" layer="4" shape="528,318 528,337 547,337 547,318"/>
  <poly id="97" type="building" color="0.7,0.3,0.1" fill="1" layer="4" shape="563,318 563,337 582,337 582,318"/>
  <poly id="98" type="building" color="0.7,0.3,0.1" fill="1" layer="4" shape="108,353 108,372 127,372 127,353"/>
  <poly id="99" type="building" color="0.7,0.3,0.1" fill="1" layer="4" shape="143,353 143,372 162,372 162,353"/>
  <poly id="100" type="building" color="0.7,0.3,0.1" fill="1" layer="4" shape="178,353 178,372 197,372 197,353"/>
  <poly id="101" type="building" color="0.7,0.3,0.1" fill="1" layer="4" shape="213,353 213,372 232,372 232,353"/>
  <poly id="102" type="building" color="0.7,0.3,0.1" fill="1" layer="4" shape="248,353 248,372 267,372 267,353"/>
  <poly id="103" type="building" color="0.7,0.3,0.1" fill="1" layer="4" shape="283,353 283,372 302,372 302,353"/>
  <poly id="104" type="building" color="0.7,0.3,0.1" fill="1" layer="4" shape="318,353 318,372 337,372 337,353"/>
  <poly id="105" type="building" color="0.7,0.3,0.1" fill="1" layer="4" shape="353,353 353,372 372,372 372,353"/>
  <poly id="106" type="building" color="0.7,0.3,0.1" fill="1" layer="4" shape="388,353 388,372 407,372 407,353"/>
  <poly id="107" type="building" color="0.7,0.3,0.1" fill="1" layer="4" shape="423,353 423,372 442,372 442,353"/>
  <poly id="108" type="building" color="0.7,0.3,0.1" fill="1" layer="4" shape="458,353 458,372 477,372 477,353"/>
  <poly id="109" type="building" color="0.7,0.3,0.1" fill="1" layer="4" shape="493,353 493,372 512,372 512,353"/>
  <poly id="110" type="building" color="0.7,0.3,0.1" fill="1" layer="4" shape="528,353 528,372 547,372 547,353"/>
  <poly id="111" type="building" color="0.7,0.3,0.1" fill="1" layer="4" shape="563,353 563,372 582,372 582,353"/>
  <poly id="112" type="building" color="0.7,0.3,0.1" fill="1" layer="4" shape="108,388 108,407 127,407 127,388"/>
  <poly id="113" type="building" color="0.7,0.3,0.1" fill="1" layer="4" shape="143,388 143,407 162,407 162,388"/>
  <poly id="114" type="building" color="0.7,0.3,0.1" fill="1" layer="4" shape="178,388 178,407 197,407 197,388"/>
  <poly id="115" type="building" color="0.7,0.3,0.1" fill="1" layer="4" shape="213,388 213,407 232,407 232,388"/>
  <poly id="116" type="building" color="0.7,0.3,0.1" fill="1" layer="4" shape="248,388 248,407 267,407 267,388"/>
  <poly id="117" type="building" color="0.7,0.3,0.1" fill="1" layer="4" shape="283,388 283,407 302,407 302,388"/>
  <poly id="118" type="building" color="0.7,0.3,0.1" fill="1" layer="4" shape="318,388 318,407 337,407 337,388"/>
  <poly id="119" type="building" color="0.7,0.3,0.1" fill="1" layer="4" shape="353,388 353,407 372,407 372,388"/>
  <poly id="120" type="building" color="0.7,0.3,0.1" fill="1" layer="4" shape="388,388 388,407 407,407 407,388"/>
  <poly id="121" type="building" color="0.7,0.3,0.1" fill="1" layer="4" shape="423,388 423,407 442,407 442,388"/>
  <poly id="122" type="building" color="0.7,0.3,0.1" fill="1" layer="4" shape="458,388 458,407 477,407 477,388"/>
  <poly id="123" type="building" color="0.7,0.3,0.1" fill="1" layer="4" shape="493,388 493,407 512,407 512,388"/>
  <poly id="124" type="building" color="0.7,0.3,0.1" fill="1" layer="4" shape="528,388 528,407 547,407 547,388"/>
  <poly id="125" type="building" color="0.7,0.3,0.1" fill="1" layer="4" shape="563,388 563,407 582,407 582,388"/>
  <poly id="126" type="building" color="0.7,0.3,0.1" fill="1" layer="4" shape="108,423 108,442 127,442 127,423"/>
  <poly id="127" type="building" color="0.7,0.3,0.1" fill="1" layer="4" shape="143,423 143,442 162,442 162,423"/>
  <poly id="128" type="building" color="0.7,0.3,0.1" fill="1" layer="4" shape="178,423 178,442 197,442 197,423"/>
  <poly id="129" type="building" color="0.7,0.3,0.1" fill="1" layer="4" shape="213,423 213,442 232,442 232,423"/>
  <poly id="130" type="building" color="0.7,0.3,0.1" fill="1" layer="4" shape="248,423 248,442 267,442 267,423"/>
  <poly id="131" type="building" color="0.7,0.3,0.1" fill="1" layer="4" shape="283,423 283,442 302,442 302,423"/>
  <poly id="132" type="building" color="0.7,0.3,0.1" fill="1" layer="4" shape="318,423 318,442 337,442 337,423"/>
  <poly id="133" type="building" color="0.7,0.3,0.1" fill="1" layer="4" shape="353,423 353,442 372,442 372,423"/>
  <poly id="134" type="building" color="0.7,0.3,0.1" fill="1" layer="4" shape="388,423 388,442 407,442 407,423"/>
  <poly id="135" type="building" color="0.7,0.3,0.1" fill="1" layer="4" shape="423,423 423,442 442,442 442,423"/>
  <poly id="136" type="building" color="0.7,0.3,0.1" fill="1" layer="4" shape="458,423 458,442 477,442 477,423"/>
  <poly id="137" type="building" color="0.7,0.3,0.1" fill="1" layer="4" shape="493,423 493,442 512,442 512,423"/>
  <poly id="138" type="building" color="0.7,0.3,0.1" fill="1" layer="4" shape="528,423 528,442 547,442 547,423"/>
  <poly id="139" type="building" color="0.7,0.3,0.1" fill="1" layer="4" shape="563,423 563,442 582,442 582,423"/>
  <poly id="140" type="building" color="0.7,0.3,0.1" fill="1" layer="4" shape="108,458 108,477 127,477 127,458"/>
  <poly id="141" type="building" color="0.7,0.3,0.1" fill="1" layer="4" shape="143,458 143,477 162,477 162,458"/>
  <poly id="142" type="building" color="0.7,0.3,0.1" fill="1" layer="4" shape="178,458 178,477 197,477 197,458"/>
  <poly id="143" type="building" color="0.7,0.3,0.1" fill="1" layer="4" shape="213,458 213,477 232,477 232,458"/>
  <poly id="144" type="building" color="0.7,0.3,0.1" fill="1" layer="4" shape="248,458 248,477 267,477 267,458"/>
  <poly id="145" type="building" color="0.7,0.3,0.1" fill="1" layer="4" shape="283,458 283,477 302,477 302,458"/>
  <poly id="146" type="building" color="0.7,0.3,0.1" fill="1" layer="4" shape="318,458 318,477 337,477 337,458"/>
  <poly id="147" type="building" color="0.7,0.3,0.1" fill="1" layer="4" shape="353,458 353,477 372,477 372,458"/>
  <poly id="148" type="building" color="0.7,0.3,0.1" fill="1" layer="4" shape="388,458 388,477 407,477 407,458"/>
  <poly id="149" type="building" color="0.7,0.3,0.1" fill="1" layer="4" shape="423,458 423,477 442,477 442,458"/>
  <poly id="150" type="building" color="0.7,0.3,0.1" fill="1" layer="4" shape="458,458 458,477 477,477 477,458"/>
  <poly id="151" type="building" color="0.7,0.3,0.1" fill="1" layer="4" shape="493,458 493,477 512,477 512,458"/>
  <poly id="152" type="building" color="0.7,0.3,0.1" fill="1" layer="4" shape="528,458 528,477 547,477 547,458"/>
  <poly id="153" type="building" color="0.7,0.3,0.1" fill="1" layer="4" shape="563,458 563,477 582,477 582,458"/>
  <poly id="154" type="building" color="0.7,0.3,0.1" fill="1" layer="4" shape="108,493 108,512 127,512 127,493"/>
  <poly id="155" type="building" color="0.7,0.3,0.1" fill="1" layer="4" shape="143,493 143,512 162,512 162,493"/>
  <poly id="156" type="building" color="0.7,0.3,0.1" fill="1" layer="4" shape="178,493 178,512 197,512 197,493"/>
  <poly id="157" type="building" color="0.7,0.3,0.1" fill="1" layer="4" shape="213,493 213,512 232,512 232,493"/>
  <poly id="158" type="building" color="0.7,0.3,0.1" fill="1" layer="4" shape="248,493 248,512 267,512 267,493"/>
  <poly id="159" type="building" color="0.7,0.3,0.1" fill="1" layer="4" shape="283,493 283,512 302,512 302,493"/>
  <poly id="160" type="building" color="0.7,0.3,0.1" fill="1" layer="4" shape="318,493 318,512 337,512 337,493"/>
  <poly id="161" type="building" color="0.7,0.3,0.1" fill="1" layer="4" shape="353,493 353,512 372,512 372,493"/>
  <poly id="162" type="building" color="0.7,0.3,0.1" fill="1" layer="4" shape="388,493 388,512 407,512 407,493"/>
  <poly id="163" type="building" color="0.7,0.3,0.1" fill="1" layer="4" shape="423,493 423,512 442,512 442,493"/>
  <poly id="164" type="building" color="0.7,0.3,0.1" fill="1" layer="4" shape="458,493 458,512 477,512 477,493"/>
  <poly id="165" type="building" color="0.7,0.3,0.1" fill="1" layer="4" shape="493,493 493,512 512,512 512,493"/>
  <poly id="166" type="building" color="0.7,0.3,0.1" fill="1" layer="4" shape="528,493 528,512 547,512 547,493"/>
  <poly id="167" type="building" color="0.7,0.3,0.1" fill="1" layer="4" shape="563,493 563,512 582,512 582,493"/>
  <poly id="168" type="building" color="0.7,0.3,0.1" fill="1" layer="4" shape="108,528 108,547 127,547 127,528"/>
  <poly id="169" type="building" color="0.7,0.3,0.1" fill="1" layer="4" shape="143,528 143,547 162,547 162,528"/>
  <poly id="170" type="building" color="0.7,0.3,0.1" fill="1" layer="4" shape="178,528 178,547 197,547 197,528"/>
  <poly id="171" type="building" color="0.7,0.3,0.1" fill="1" layer="4" shape="213,528 213,547 232,547 232,528"/>
  <poly id="172" type="building" color="0.7,0.3,0.1" fill="1" layer="4" shape="248,528 248,547 267,547 267,528"/>
  <poly id="173" type="building" color="0.7,0.3,0.1" fill="1" layer="4" shape="283,528 283,547 302,547 302,528"/>
  <poly id="174" type="building" color="0.7,0.3,0.1" fill="1" layer="4" shape="318,528 318,547 337,547 337,528"/>
  <poly id="175" type="building" color="0.7,0.3,0.1" fill="1" layer="4" shape="353,528 353,547 372,547 372,528"/>
  <poly id="176" type="building" color="0.7,0.3,0.1" fill="1" layer="4" shape="388,528 388,547 407,547 407,528"/>
  <poly id="177" type="building" color="0.7,0.3,0.1" fill="1" layer="4" shape="423,528 423,547 442,547 442,528"/>
  <poly id="178" type="building" color="0.7,0.3,0.1" fill="1" layer="4" shape="458,528 458,547 477,547 477,528"/>
  <poly id="179" type="building" color="0.7,0.3,0.1" fill="1" layer="4" shape="493,528 493,547 512,547 512,528"/>
  <poly id="180" type="building" color="0.7,0.3,0.1" fill="1" layer="4" shape="528,528 528,547 547,547 547,528"/>
  <poly id="181" type="building" color="0.7,0.3,0.1" fill="1" layer="4" shape="563,528 563,547 582,547 582,528"/>
  <poly id="182" type="building" color="0.7,0.3,0.1" fill="1" layer="4" shape="108,563 108,582 127,582 127,563"/>
  <poly id="183" type="building" color="0.7,0.3,0.1" fill="1" layer="4" shape="143,563 143,582 162,582 162,563"/>
  <poly id="184" type="building" color="0.7,0.3,0.1" fill="1" layer="4" shape="178,563 178,582 197,582 197,563"/>
  <poly id="185" type="building" color="0.7,0.3,0.1" fill="1" layer="4" shape="213,563 213,582 232,582 232,563"/>
  <poly id="186" type="building" color="0.7,0.3,0.1" fill="1" layer="4" shape="248,563 248,582 267,582 267,563"/>
  <poly id="187" type="building" color="0.7,0.3,0.1" fill="1" layer="4" shape="283,563 283,582 302,582 302,563"/>
  <poly id="188" type="building" color="0.7,0.3,0.1" fill="1" layer="4" shape="318,563 318,582 337,582 337,563"/>
  <poly id="189" type="building" color="0.7,0.3,0.1" fill="1" layer="4" shape="353,563 353,582 372,582 372,563"/>
  <poly id="190" type="building" color="0.7,0.3,0.1" fill="1" layer="4" shape="388,563 388,582 407,582 407,563"/>
  <poly id="191" type="building" color="0.7,0.3,0.1" fill="1" layer="4" shape="423,563 423,582 442,582 442,563"/>
  <poly id="192" type="building" color="0.7,0.3,0.1" fill="1" layer="4" shape="458,563 458,582 477,582 477,563"/>
  <poly id="193" type="building" color="0.7,0.3,0.1" fill="1" layer="4" shape="493,563 493,582 512,582 512,563"/>
  <poly id="194" type="building" color="0.7,0.3,0.1" fill="1" layer="4" shape="528,563 528,582 547,582 547,563"/>
  <poly id="195" type="building" color="0.7,0.3,0.1" fill="1" layer="4" shape="563,563 563,582 582,582 582,563"/>
  <poi width="7" height="7" layer="5" type="EgoVehicleStart" posLat="0" color="1,1,0" id="EgoVehicleStart0" x="521.9" y="168.8" angle="-90.0"/>
  <poi width="3" height="3" layer="5" type="streetSign_nextTurn_left" posLat="0" color="0,0.4,.8" x="524.1" y="196.10000000000002" angle="-180.0" id="next_turn_from_M2M3_0"/>
  <poi width="3" height="3" layer="5" type="streetSign_nextTurn_straight" posLat="0" color="0,0.4,.8" x="493.9" y="209.1" angle="-270.0" id="next_turn_from_M3L3_0"/>
  <poi width="3" height="3" layer="5" type="streetSign_nextTurn_right" posLat="0" color="0,0.4,.8" x="458.9" y="209.1" angle="-270.0" id="next_turn_from_L3K3_0"/>
  <poi width="3" height="3" layer="5" type="streetSign_nextTurn_straight" posLat="0" color="0,0.4,.8" x="454.09999999999997" y="231.10000000000002" angle="-180.0" id="next_turn_from_K3K4_0"/>
  <poi width="3" height="3" layer="5" type="streetSign_nextTurn_straight" posLat="0" color="0,0.4,.8" x="454.09999999999997" y="266.1" angle="-180.0" id="next_turn_from_K4K5_0"/>
  <poi width="3" height="3" layer="5" type="streetSign_nextTurn_straight" posLat="0" color="0,0.4,.8" x="454.09999999999997" y="301.1" angle="-180.0" id="next_turn_from_K5K6_0"/>
  <poi width="3" height="3" layer="5" type="streetSign_nextTurn_straight" posLat="0" color="0,0.4,.8" x="454.09999999999997" y="336.1" angle="-180.0" id="next_turn_from_K6K7_0"/>
  <poi width="3" height="3" layer="5" type="streetSign_nextTurn_straight" posLat="0" color="0,0.4,.8" x="454.09999999999997" y="371.1" angle="-180.0" id="next_turn_from_K7K8_0"/>
  <poi width="3" height="3" layer="5" type="streetSign_nextTurn_straight" posLat="0" color="0,0.4,.8" x="454.09999999999997" y="406.1" angle="-180.0" id="next_turn_from_K8K9_0"/>
  <poi width="3" height="3" layer="5" type="streetSign_nextTurn_straight" posLat="0" color="0,0.4,.8" x="454.09999999999997" y="441.1" angle="-180.0" id="next_turn_from_K9K10_0"/>
  <poi width="3" height="3" layer="5" type="streetSign_nextTurn_right" posLat="0" color="0,0.4,.8" x="454.09999999999997" y="476.1" angle="-180.0" id="next_turn_from_K10K11_0"/>
  <poi width="3" height="3" layer="5" type="streetSign_nextTurn_straight" posLat="0" color="0,0.4,.8" x="476.1" y="480.90000000000003" angle="-90.0" id="next_turn_from_K11L11_0"/>
  <poi width="3" height="3" layer="5" type="streetSign_nextTurn_left" posLat="0" color="0,0.4,.8" x="511.1" y="480.90000000000003" angle="-90.0" id="next_turn_from_L11M11_0"/>
  <poi width="3" height="3" layer="5" type="streetSign_nextTurn_left" posLat="0" color="0,0.4,.8" x="524.1" y="511.1" angle="-180.0" id="next_turn_from_M11M12_0"/>
  <poi width="3" height="3" layer="5" type="streetSign_nextTurn_straight" posLat="0" color="0,0.4,.8" x="493.9" y="524.1" angle="-270.0" id="next_turn_from_M12L12_0"/>
  <poi width="3" height="3" layer="5" type="streetSign_nextTurn_straight" posLat="0" color="0,0.4,.8" x="458.9" y="524.1" angle="-270.0" id="next_turn_from_L12K12_0"/>
  <poi width="3" height="3" layer="5" type="streetSign_nextTurn_straight" posLat="0" color="0,0.4,.8" x="423.9" y="524.1" angle="-270.0" id="next_turn_from_K12J12_0"/>
  <poi width="3" height="3" layer="5" type="streetSign_nextTurn_straight" posLat="0" color="0,0.4,.8" x="388.9" y="524.1" angle="-270.0" id="next_turn_from_J12I12_0"/>
  <poi width="3" height="3" layer="5" type="streetSign_nextTurn_straight" posLat="0" color="0,0.4,.8" x="353.9" y="524.1" angle="-270.0" id="next_turn_from_I12H12_0"/>
  <poi width="3" height="3" layer="5" type="streetSign_nextTurn_right" posLat="0" color="0,0.4,.8" x="318.9" y="524.1" angle="-270.0" id="next_turn_from_H12G12_0"/>
  <poi width="3" height="3" layer="5" type="streetSign_nextTurn_right" posLat="0" color="0,0.4,.8" x="314.09999999999997" y="546.0999999999999" angle="-180.0" id="next_turn_from_G12G13_0"/>
  <poi width="3" height="3" layer="5" type="streetSign_nextTurn_straight" posLat="0" color="0,0.4,.8" x="336.1" y="550.9" angle="-90.0" id="next_turn_from_G13H13_0"/>
  <poi width="3" height="3" layer="5" type="streetSign_nextTurn_straight" posLat="0" color="0,0.4,.8" x="371.1" y="550.9" angle="-90.0" id="next_turn_from_H13I13_0"/>
  <poi width="3" height="3" layer="5" type="streetSign_nextTurn_straight" posLat="0" color="0,0.4,.8" x="406.1" y="550.9" angle="-90.0" id="next_turn_from_I13J13_0"/>
  <poi width="3" height="3" layer="5" type="streetSign_nextTurn_straight" posLat="0" color="0,0.4,.8" x="441.1" y="550.9" angle="-90.0" id="next_turn_from_J13K13_0"/>
  <poi width="3" height="3" layer="5" type="streetSign_nextTurn_straight" posLat="0" color="0,0.4,.8" x="476.1" y="550.9" angle="-90.0" id="next_turn_from_K13L13_0"/>
  <poi width="3" height="3" layer="5" type="streetSign_nextTurn_straight" posLat="0" color="0,0.4,.8" x="511.1" y="550.9" angle="-90.0" id="next_turn_from_L13M13_0"/>
  <poi width="3" height="3" layer="5" type="streetSign_nextTurn_right" posLat="0" color="0,0.4,.8" x="546.0999999999999" y="550.9" angle="-90.0" id="next_turn_from_M13N13_0"/>
  <poi width="3" height="3" layer="5" type="streetSign_nextTurn_straight" posLat="0" color="0,0.4,.8" x="550.9" y="528.9000000000001" angle="0.0" id="next_turn_from_N13N12_0"/>
  <poi width="3" height="3" layer="5" type="streetSign_nextTurn_straight" posLat="0" color="0,0.4,.8" x="550.9" y="493.9" angle="0.0" id="next_turn_from_N12N11_0"/>
  <poi width="3" height="3" layer="5" type="streetSign_nextTurn_straight" posLat="0" color="0,0.4,.8" x="550.9" y="458.9" angle="0.0" id="next_turn_from_N11N10_0"/>
  <poi width="3" height="3" layer="5" type="streetSign_nextTurn_right" posLat="0" color="0,0.4,.8" x="550.9" y="423.9" angle="0.0" id="next_turn_from_N10N9_0"/>
  <poi width="3" height="3" layer="5" type="streetSign_nextTurn_right" posLat="0" color="0,0.4,.8" x="528.9000000000001" y="419.09999999999997" angle="-270.0" id="next_turn_from_N9M9_0"/>
  <poi width="3" height="3" layer="5" type="streetSign_nextTurn_left" posLat="0" color="0,0.4,.8" x="524.1" y="441.1" angle="-180.0" id="next_turn_from_M9M10_0"/>
  <poi width="3" height="3" layer="5" type="streetSign_nextTurn_left" posLat="0" color="0,0.4,.8" x="493.9" y="454.09999999999997" angle="-270.0" id="next_turn_from_M10L10_0"/>
  <poi width="3" height="3" layer="5" type="streetSign_nextTurn_straight" posLat="0" color="0,0.4,.8" x="480.90000000000003" y="423.9" angle="0.0" id="next_turn_from_L10L9_0"/>
  <poi width="3" height="3" layer="5" type="streetSign_nextTurn_straight" posLat="0" color="0,0.4,.8" x="480.90000000000003" y="388.9" angle="0.0" id="next_turn_from_L9L8_0"/>
  <poi width="3" height="3" layer="5" type="streetSign_nextTurn_straight" posLat="0" color="0,0.4,.8" x="480.90000000000003" y="353.9" angle="0.0" id="next_turn_from_L8L7_0"/>
  <poi width="3" height="3" layer="5" type="streetSign_nextTurn_straight" posLat="0" color="0,0.4,.8" x="480.90000000000003" y="318.9" angle="0.0" id="next_turn_from_L7L6_0"/>
  <poi width="3" height="3" layer="5" type="streetSign_nextTurn_straight" posLat="0" color="0,0.4,.8" x="480.90000000000003" y="283.9" angle="0.0" id="next_turn_from_L6L5_0"/>
  <poi width="3" height="3" layer="5" type="streetSign_nextTurn_left" posLat="0" color="0,0.4,.8" x="480.90000000000003" y="248.89999999999998" angle="0.0" id="next_turn_from_L5L4_0"/>
  <poi width="3" height="3" layer="5" type="streetSign_nextTurn_left" posLat="0" color="0,0.4,.8" x="511.1" y="235.9" angle="-90.0" id="next_turn_from_L4M4_0"/>
  <poi width="3" height="3" layer="5" type="streetSign_nextTurn_straight" posLat="0" color="0,0.4,.8" x="524.1" y="266.1" angle="-180.0" id="next_turn_from_M4M5_0"/>