<?xml version='1.0' encoding='ISO-8859-1'?>
<additional>
  <poly id="0" type="building" color="0.7,0.3,0.1" fill="1" layer="4" shape="106,106 106,129 129,129 129,106"/>
  <poly id="1" type="building" color="0.7,0.3,0.1" fill="1" layer="4" shape="141,106 141,129 164,129 164,106"/>
  <poly id="2" type="building" color="0.7,0.3,0.1" fill="1" layer="4" shape="176,106 176,129 199,129 199,106"/>
  <poly id="3" type="building" color="0.7,0.3,0.1" fill="1" layer="4" shape="211,106 211,129 234,129 234,106"/>
  <poly id="4" type="building" color="0.7,0.3,0.1" fill="1" layer="4" shape="246,106 246,129 269,129 269,106"/>
  <poly id="5" type="building" color="0.7,0.3,0.1" fill="1" layer="4" shape="281,106 281,129 304,129 304,106"/>
  <poly id="6" type="building" color="0.7,0.3,0.1" fill="1" layer="4" shape="316,106 316,129 339,129 339,106"/>
  <poly id="7" type="building" color="0.7,0.3,0.1" fill="1" layer="4" shape="351,106 351,129 374,129 374,106"/>
  <poly id="8" type="building" color="0.7,0.3,0.1" fill="1" layer="4" shape="386,106 386,129 409,129 409,106"/>
  <poly id="9" type="building" color="0.7,0.3,0.1" fill="1" layer="4" shape="421,106 421,129 444,129 444,106"/>
  <poly id="10" type="building" color="0.7,0.3,0.1" fill="1" layer="4" shape="456,106 456,129 479,129 479,106"/>
  <poly id="11" type="building" color="0.7,0.3,0.1" fill="1" layer="4" shape="491,106 491,129 514,129 514,106"/>
  <poly id="12" type="building" color="0.7,0.3,0.1" fill="1" layer="4" shape="526,106 526,129 549,129 549,106"/>
  <poly id="13" type="building" color="0.7,0.3,0.1" fill="1" layer="4" shape="561,106 561,129 584,129 584,106"/>
  <poly id="14" type="building" color="0.7,0.3,0.1" fill="1" layer="4" shape="106,141 106,164 129,164 129,141"/>
  <poly id="15" type="building" color="0.7,0.3,0.1" fill="1" layer="4" shape="141,141 141,164 164,164 164,141"/>
  <poly id="16" type="building" color="0.7,0.3,0.1" fill="1" layer="4" shape="176,141 176,164 199,164 199,141"/>
  <poly id="17" type="building" color="0.7,0.3,0.1" fill="1" layer="4" shape="211,141 211,164 234,164 234,141"/>
  <poly id="18" type="building" color="0.7,0.3,0.1" fill="1" layer="4" shape="246,141 246,164 269,164 269,141"/>
  <poly id="19" type="building" color="0.7,0.3,0.1" fill="1" layer="4" shape="281,141 281,164 304,164 304,141"/>
  <poly id="20" type="building" color="0.7,0.3,0.1" fill="1" layer="4" shape="316,141 316,164 339,164 339,141"/>
  <poly id="21" type="building" color="0.7,0.3,0.1" fill="1" layer="4" shape="351,141 351,164 374,164 374,141"/>
  <poly id="22" type="building" color="0.7,0.3,0.1" fill="1" layer="4" shape="386,141 386,164 409,164 409,141"/>
  <poly id="23" type="building" color="0.7,0.3,0.1" fill="1" layer="4" shape="421,141 421,164 444,164 444,141"/>
  <poly id="24" type="building" color="0.7,0.3,0.1" fill="1" layer="4" shape="456,141 456,164 479,164 479,141"/>
  <poly id="25" type="building" color="0.7,0.3,0.1" fill="1" layer="4" shape="491,141 491,164 514,164 514,141"/>
  <poly id="26" type="building" color="0.7,0.3,0.1" fill="1" layer="4" shape="526,141 526,164 549,164 549,141"/>
  <poly id="27" type="building" color="0.7,0.3,0.1" fill="1" layer="4" shape="561,141 561,164 584,164 584,141"/>
  <poly id="28" type="building" color="0.7,0.3,0.1" fill="1" layer="4" shape="106,176 106,199 129,199 129,176"/>
  <poly id="29" type="building" color="0.7,0.3,0.1" fill="1" layer="4" shape="141,176 141,199 164,199 164,176"/>
  <poly id="30" type="building" color="0.7,0.3,0.1" fill="1" layer="4" shape="176,176 176,199 199,199 199,176"/>
  <poly id="31" type="building" color="0.7,0.3,0.1" fill="1" layer="4" shape="211,176 211,199 234,199 234,176"/>
  <poly id="32" type="building" color="0.7,0.3,0.1" fill="1" layer="4" shape="246,176 246,199 269,199 269,176"/>
  <poly id="33" type="building" color="0.7,0.3,0.1" fill="1" layer="4" shape="281,176 281,199 304,199 304,176"/>
  <poly id="34" type="building" color="0.7,0.3,0.1" fill="1" layer="4" shape="316,176 316,199 339,199 339,176"/>
  <poly id="35" type="building" color="0.7,0.3,0.1" fill="1" layer="4" shape="351,176 351,199 374,199 374,176"/>
  <poly id="36" type="building" color="0.7,0.3,0.1" fill="1" layer="4" shape="386,176 386,199 409,199 409,176"/>
  <poly id="37" type="building" color="0.7,0.3,0.1" fill="1" layer="4" shape="421,176 421,199 444,199 444,176"/>
  <poly id="38" type="building" color="0.7,0.3,0.1" fill="1" layer="4" shape="456,176 456,199 479,199 479,176"/>
  <poly id="39" type="building" color="0.7,0.3,0.1" fill="1" layer="4" shape="491,176 491,199 514,199 514,176"/>
  <poly id="40" type="building" color="0.7,0.3,0.1" fill="1" layer="4" shape="526,176 526,199 549,199 549,176"/>
  <poly id="41" type="building" color="0.7,0.3,0.1" fill="1" layer="4" shape="561,176 561,199 584,199 584,176"/>
  <poly id="42" type="building" color="0.7,0.3,0.1" fill="1" layer="4" shape="106,211 106,234 129,234 129,211"/>
  <poly id="43" type="building" color="0.7,0.3,0.1" fill="1" layer="4" shape="141,211 141,234 164,234 164,211"/>
  <poly id="44" type="building" color="0.7,0.3,0.1" fill="1" layer="4" shape="176,211 176,234 199,234 199,211"/>
  <poly id="45" type="building" color="0.7,0.3,0.1" fill="1" layer="4" shape="211,211 211,234 234,234 234,211"/>
  <poly id="46" type="building" color="0.7,0.3,0.1" fill="1" layer="4" shape="246,211 246,234 269,234 269,211"/>
  <poly id="47" type="building" color="0.7,0.3,0.1" fill="1" layer="4" shape="281,211 281,234 304,234 304,211"/>
  <poly id="48" type="building" color="0.7,0.3,0.1" fill="1" layer="4" shape="316,211 316,234 339,234 339,211"/>
  <poly id="49" type="building" color="0.7,0.3,0.1" fill="1" layer="4" shape="351,211 351,234 374,234 374,211"/>
  <poly id="50" type="building" color="0.7,0.3,0.1" fill="1" layer="4" shape="386,211 386,234 409,234 409,211"/>
  <poly id="51" type="building" color="0.7,0.3,0.1" fill="1" layer="4" shape="421,211 421,234 444,234 444,211"/>
  <poly id="52" type="building" color="0.7,0.3,0.1" fill="1" layer="4" shape="456,211 456,234 479,234 479,211"/>
  <poly id="53" type="building" color="0.7,0.3,0.1" fill="1" layer="4" shape="491,211 491,234 514,234 514,211"/>
  <poly id="54" type="building" color="0.7,0.3,0.1" fill="1" layer="4" shape="526,211 526,234 549,234 549,211"/>
  <poly id="55" type="building" color="0.7,0.3,0.1" fill="1" layer="4" shape="561,211 561,234 584,234 584,211"/>
  <poly id="56" type="building" color="0.7,0.3,0.1" fill="1" layer="4" shape="106,246 106,269 129,269 129,246"/>
  <poly id="57" type="building" color="0.7,0.3,0.1" fill="1" layer="4" shape="141,246 141,269 164,269 164,246"/>
  <poly id="58" type="building" color="0.7,0.3,0.1" fill="1" layer="4" shape="176,246 176,269 199,269 199,246"/>
  <poly id="59" type="building" color="0.7,0.3,0.1" fill="1" layer="4" shape="211,246 211,269 234,269 234,246"/>
  <poly id="60" type="building" color="0.7,0.3,0.1" fill="1" layer="4" shape="246,246 246,269 269,269 269,246"/>
  <poly id="61" type="building" color="0.7,0.3,0.1" fill="1" layer="4" shape="281,246 281,269 304,269 304,246"/>
  <poly id="62" type="building" color="0.7,0.3,0.1" fill="1" layer="4" shape="316,246 316,269 339,269 339,246"/>
  <poly id="63" type="building" color="0.7,0.3,0.1" fill="1" layer="4" shape="351,246 351,269 374,269 374,246"/>
  <poly id="64" type="building" color="0.7,0.3,0.1" fill="1" layer="4" shape="386,246 386,269 409,269 409,246"/>
  <poly id="65" type="building" color="0.7,0.3,0.1" fill="1" layer="4" shape="421,246 421,269 444,269 444,246"/>
  <poly id="66" type="building" color="0.7,0.3,0.1" fill="1" layer="4" shape="456,246 456,269 479,269 479,246"/>
  <poly id="67" type="building" color="0.7,0.3,0.1" fill="1" layer="4" shape="491,246 491,269 514,269 514,246"/>
  <poly id="68" type="building" color="0.7,0.3,0.1" fill="1" layer="4" shape="526,246 526,269 549,269 549,246"/>
  <poly id="69" type="building" color="0.7,0.3,0.1" fill="1" layer="4" shape="561,246 561,269 584,269 584,246"/>
  <poly id="70" type="building" color="0.7,0.3,0.1" fill="1" layer="4" shape="106,281 106,304 129,304 129,281"/>
  <poly id="71" type="building" color="0.7,0.3,0.1" fill="1" layer="4" shape="141,281 141,304 164,304 164,281"/>
  <poly id="72" type="building" color="0.7,0.3,0.1" fill="1" layer="4" shape="176,281 176,304 199,304 199,281"/>
  <poly id="73" type="building" color="0.7,0.3,0.1" fill="1" layer="4" shape="211,281 211,304 234,304 234,281"/>
  <poly id="74" type="building" color="0.7,0.3,0.1" fill="1" layer="4" shape="246,281 246,304 269,304 269,281"/>
  <poly id="75" type="building" color="0.7,0.3,0.1" fill="1" layer="4" shape="281,281 281,304 304,304 304,281"/>
  <poly id="76" type="building" color="0.7,0.3,0.1" fill="1" layer="4" shape="316,281 316,304 339,304 339,281"/>
  <poly id="77" type="building" color="0.7,0.3,0.1" fill="1" layer="4" shape="351,281 351,304 374,304 374,281"/>
  <poly id="78" type="building" color="0.7,0.3,0.1" fill="1" layer="4" shape="386,281 386,304 409,304 409,281"/>
  <poly id="79" type="building" color="0.7,0.3,0.1" fill="1" layer="4" shape="421,281 421,304 444,304 444,281"/>
  <poly id="80" type="building" color="0.7,0.3,0.1" fill="1" layer="4" shape="456,281 456,304 479,304 479,281"/>
  <poly id="81" type="building" color="0.7,0.3,0.1" fill="1" layer="4" shape="491,281 491,304 514,304 514,281"/>
  <poly id="82" type="building" color="0.7,0.3,0.1" fill="1" layer="4" shape="526,281 526,304 549,304 549,281"/>
  <poly id="83" type="building" color="0.7,0.3,0.1" fill="1" layer="4" shape="561,281 561,304 584,304 584,281"/>
  <poly id="84" type="building" color="0.7,0.3,0.1" fill="1" layer="4" shape="106,316 106,339 129,339 129,316"/>
  <poly id="85" type="building" color="0.7,0.3,0.1" fill="1" layer="4" shape="141,316 141,339 164,339 164,316"/>
  <poly id="86" type="building" color="0.7,0.3,0.1" fill="1" layer="4" shape="176,316 176,339 199,339 199,316"/>
  <poly id="87" type="building" color="0.7,0.3,0.1" fill="1" layer="4" shape="211,316 211,339 234,339 234,316"/>
  <poly id="88" type="building" color="0.7,0.3,0.1" fill="1" layer="4" shape="246,316 246,339 269,339 269,316"/>
  <poly id="89" type="building" color="0.7,0.3,0.1" fill="1" layer="4" shape="281,316 281,339 304,339 304,316"/>
  <poly id="90" type="building" color="0.7,0.3,0.1" fill="1" layer="4" shape="316,316 316,339 339,339 339,316"/>
  <poly id="91" type="building" color="0.7,0.3,0.1" fill="1" layer="4" shape="351,316 351,339 374,339 374,316"/>
  <poly id="92" type="building" color="0.7,0.3,0.1" fill="1" layer="4" shape="386,316 386,339 409,339 409,316"/>
  <poly id="93" type="building" color="0.7,0.3,0.1" fill="1" layer="4" shape="421,316 421,339 444,339 444,316"/>
  <poly id="94" type="building" color="0.7,0.3,0.1" fill="1" layer="4" shape="456,316 456,339 479,339 479,316"/>
  <poly id="95" type="building" color="0.7,0.3,0.1" fill="1" layer="4" shape="491,316 491,339 514,339 514,316"/>
  <poly id="96" type="building" color="0.7,0.3,0.1" fill="1" layer="4" shape="526,316 526,339 549,339 549,316"/>
  <poly id="97" type="building" color="0.7,0.3,0.1" fill="1" layer="4" shape="561,316 561,339 584,339 584,316"/>
  <poly id="98" type="building" color="0.7,0.3,0.1" fill="1" layer="4" shape="106,351 106,374 129,374 129,351"/>
  <poly id="99" type="building" color="0.7,0.3,0.1" fill="1" layer="4" shape="141,351 141,374 164,374 164,351"/>
  <poly id="100" type="building" color="0.7,0.3,0.1" fill="1" layer="4" shape="176,351 176,374 199,374 199,351"/>
  <poly id="101" type="building" color="0.7,0.3,0.1" fill="1" layer="4" shape="211,351 211,374 234,374 234,351"/>
  <poly id="102" type="building" color="0.7,0.3,0.1" fill="1" layer="4" shape="246,351 246,374 269,374 269,351"/>
  <poly id="103" type="building" color="0.7,0.3,0.1" fill="1" layer="4" shape="281,351 281,374 304,374 304,351"/>
  <poly id="104" type="building" color="0.7,0.3,0.1" fill="1" layer="4" shape="316,351 316,374 339,374 339,351"/>
  <poly id="105" type="building" color="0.7,0.3,0.1" fill="1" layer="4" shape="351,351 351,374 374,374 374,351"/>
  <poly id="106" type="building" color="0.7,0.3,0.1" fill="1" layer="4" shape="386,351 386,374 409,374 409,351"/>
  <poly id="107" type="building" color="0.7,0.3,0.1" fill="1" layer="4" shape="421,351 421,374 444,374 444,351"/>
  <poly id="108" type="building" color="0.7,0.3,0.1" fill="1" layer="4" shape="456,351 456,374 479,374 479,351"/>
  <poly id="109" type="building" color="0.7,0.3,0.1" fill="1" layer="4" shape="491,351 491,374 514,374 514,351"/>
  <poly id="110" type="building" color="0.7,0.3,0.1" fill="1" layer="4" shape="526,351 526,374 549,374 549,351"/>
  <poly id="111" type="building" color="0.7,0.3,0.1" fill="1" layer="4" shape="561,351 561,374 584,374 584,351"/>
  <poly id="112" type="building" color="0.7,0.3,0.1" fill="1" layer="4" shape="106,386 106,409 129,409 129,386"/>
  <poly id="113" type="building" color="0.7,0.3,0.1" fill="1" layer="4" shape="141,386 141,409 164,409 164,386"/>
  <poly id="114" type="building" color="0.7,0.3,0.1" fill="1" layer="4" shape="176,386 176,409 199,409 199,386"/>
  <poly id="115" type="building" color="0.7,0.3,0.1" fill="1" layer="4" shape="211,386 211,409 234,409 234,386"/>
  <poly id="116" type="building" color="0.7,0.3,0.1" fill="1" layer="4" shape="246,386 246,409 269,409 269,386"/>
  <poly id="117" type="building" color="0.7,0.3,0.1" fill="1" layer="4" shape="281,386 281,409 304,409 304,386"/>
  <poly id="118" type="building" color="0.7,0.3,0.1" fill="1" layer="4" shape="316,386 316,409 339,409 339,386"/>
  <poly id="119" type="building" color="0.7,0.3,0.1" fill="1" layer="4" shape="351,386 351,409 374,409 374,386"/>
  <poly id="120" type="building" color="0.7,0.3,0.1" fill="1" layer="4" shape="386,386 386,409 409,409 409,386"/>
  <poly id="121" type="building" color="0.7,0.3,0.1" fill="1" layer="4" shape="421,386 421,409 444,409 444,386"/>
  <poly id="122" type="building" color="0.7,0.3,0.1" fill="1" layer="4" shape="456,386 456,409 479,409 479,386"/>
  <poly id="123" type="building" color="0.7,0.3,0.1" fill="1" layer="4" shape="491,386 491,409 514,409 514,386"/>
  <poly id="124" type="building" color="0.7,0.3,0.1" fill="1" layer="4" shape="526,386 526,409 549,409 549,386"/>
  <poly id="125" type="building" color="0.7,0.3,0.1" fill="1" layer="4" shape="561,386 561,409 584,409 584,386"/>
  <poly id="126" type="building" color="0.7,0.3,0.1" fill="1" layer="4" shape="106,421 106,444 129,444 129,421"/>
  <poly id="127" type="building" color="0.7,0.3,0.1" fill="1" layer="4" shape="141,421 141,444 164,444 164,421"/>
  <poly id="128" type="building" color="0.7,0.3,0.1" fill="1" layer="4" shape="176,421 176,444 199,444 199,421"/>
  <poly id="129" type="building" color="0.7,0.3,0.1" fill="1" layer="4" shape="211,421 211,444 234,444 234,421"/>
  <poly id="130" type="building" color="0.7,0.3,0.1" fill="1" layer="4" shape="246,421 246,444 269,444 269,421"/>
  <poly id="131" type="building" color="0.7,0.3,0.1" fill="1" layer="4" shape="281,421 281,444 304,444 304,421"/>
  <poly id="132" type="building" color="0.7,0.3,0.1" fill="1" layer="4" shape="316,421 316,444 339,444 339,421"/>
  <poly id="133" type="building" color="0.7,0.3,0.1" fill="1" layer="4" shape="351,421 351,444 374,444 374,421"/>
  <poly id="134" type="building" color="0.7,0.3,0.1" fill="1" layer="4" shape="386,421 386,444 409,444 409,421"/>
  <poly id="135" type="building" color="0.7,0.3,0.1" fill="1" layer="4" shape="421,421 421,444 444,444 444,421"/>
  <poly id="136" type="building" color="0.7,0.3,0.1" fill="1" layer="4" shape="456,421 456,444 479,444 479,421"/>
  <poly id="137" type="building" color="0.7,0.3,0.1" fill="1" layer="4" shape="491,421 491,444 514,444 514,421"/>
  <poly id="138" type="building" color="0.7,0.3,0.1" fill="1" layer="4" shape="526,421 526,444 549,444 549,421"/>
  <poly id="139" type="building" color="0.7,0.3,0.1" fill="1" layer="4" shape="561,421 561,444 584,444 584,421"/>
  <poly id="140" type="building" color="0.7,0.3,0.1" fill="1" layer="4" shape="106,456 106,479 129,479 129,456"/>
  <poly id="141" type="building" color="0.7,0.3,0.1" fill="1" layer="4" shape="141,456 141,479 164,479 164,456"/>
  <poly id="142" type="building" color="0.7,0.3,0.1" fill="1" layer="4" shape="176,456 176,479 199,479 199,456"/>
  <poly id="143" type="building" color="0.7,0.3,0.1" fill="1" layer="4" shape="211,456 211,479 234,479 234,456"/>
  <poly id="144" type="building" color="0.7,0.3,0.1" fill="1" layer="4" shape="246,456 246,479 269,479 269,456"/>
  <poly id="145" type="building" color="0.7,0.3,0.1" fill="1" layer="4" shape="281,456 281,479 304,479 304,456"/>
  <poly id="146" type="building" color="0.7,0.3,0.1" fill="1" layer="4" shape="316,456 316,479 339,479 339,456"/>
  <poly id="147" type="building" color="0.7,0.3,0.1" fill="1" layer="4" shape="351,456 351,479 374,479 374,456"/>
  <poly id="148" type="building" color="0.7,0.3,0.1" fill="1" layer="4" shape="386,456 386,479 409,479 409,456"/>
  <poly id="149" type="building" color="0.7,0.3,0.1" fill="1" layer="4" shape="421,456 421,479 444,479 444,456"/>
  <poly id="150" type="building" color="0.7,0.3,0.1" fill="1" layer="4" shape="456,456 456,479 479,479 479,456"/>
  <poly id="151" type="building" color="0.7,0.3,0.1" fill="1" layer="4" shape="491,456 491,479 514,479 514,456"/>
  <poly id="152" type="building" color="0.7,0.3,0.1" fill="1" layer="4" shape="526,456 526,479 549,479 549,456"/>
  <poly id="153" type="building" color="0.7,0.3,0.1" fill="1" layer="4" shape="561,456 561,479 584,479 584,456"/>
  <poly id="154" type="building" color="0.7,0.3,0.1" fill="1" layer="4" shape="106,491 106,514 129,514 129,491"/>
  <poly id="155" type="building" color="0.7,0.3,0.1" fill="1" layer="4" shape="141,491 141,514 164,514 164,491"/>
  <poly id="156" type="building" color="0.7,0.3,0.1" fill="1" layer="4" shape="176,491 176,514 199,514 199,491"/>
  <poly id="157" type="building" color="0.7,0.3,0.1" fill="1" layer="4" shape="211,491 211,514 234,514 234,491"/>
  <poly id="158" type="building" color="0.7,0.3,0.1" fill="1" layer="4" shape="246,491 246,514 269,514 269,491"/>
  <poly id="159" type="building" color="0.7,0.3,0.1" fill="1" layer="4" shape="281,491 281,514 304,514 304,491"/>
  <poly id="160" type="building" color="0.7,0.3,0.1" fill="1" layer="4" shape="316,491 316,514 339,514 339,491"/>
  <poly id="161" type="building" color="0.7,0.3,0.1" fill="1" layer="4" shape="351,491 351,514 374,514 374,491"/>
  <poly id="162" type="building" color="0.7,0.3,0.1" fill="1" layer="4" shape="386,491 386,514 409,514 409,491"/>
  <poly id="163" type="building" color="0.7,0.3,0.1" fill="1" layer="4" shape="421,491 421,514 444,514 444,491"/>
  <poly id="164" type="building" color="0.7,0.3,0.1" fill="1" layer="4" shape="456,491 456,514 479,514 479,491"/>
  <poly id="165" type="building" color="0.7,0.3,0.1" fill="1" layer="4" shape="491,491 491,514 514,514 514,491"/>
  <poly id="166" type="building" color="0.7,0.3,0.1" fill="1" layer="4" shape="526,491 526,514 549,514 549,491"/>
  <poly id="167" type="building" color="0.7,0.3,0.1" fill="1" layer="4" shape="561,491 561,514 584,514 584,491"/>
  <poly id="168" type="building" color="0.7,0.3,0.1" fill="1" layer="4" shape="106,526 106,549 129,549 129,526"/>
  <poly id="169" type="building" color="0.7,0.3,0.1" fill="1" layer="4" shape="141,526 141,549 164,549 164,526"/>
  <poly id="170" type="building" color="0.7,0.3,0.1" fill="1" layer="4" shape="176,526 176,549 199,549 199,526"/>
  <poly id="171" type="building" color="0.7,0.3,0.1" fill="1" layer="4" shape="211,526 211,549 234,549 234,526"/>
  <poly id="172" type="building" color="0.7,0.3,0.1" fill="1" layer="4" shape="246,526 246,549 269,549 269,526"/>
  <poly id="173" type="building" color="0.7,0.3,0.1" fill="1" layer="4" shape="281,526 281,549 304,549 304,526"/>
  <poly id="174" type="building" color="0.7,0.3,0.1" fill="1" layer="4" shape="316,526 316,549 339,549 339,526"/>
  <poly id="175" type="building" color="0.7,0.3,0.1" fill="1" layer="4" shape="351,526 351,549 374,549 374,526"/>
  <poly id="176" type="building" color="0.7,0.3,0.1" fill="1" layer="4" shape="386,526 386,549 409,549 409,526"/>
  <poly id="177" type="building" color="0.7,0.3,0.1" fill="1" layer="4" shape="421,526 421,549 444,549 444,526"/>
  <poly id="178" type="building" color="0.7,0.3,0.1" fill="1" layer="4" shape="456,526 456,549 479,549 479,526"/>
  <poly id="179" type="building" color="0.7,0.3,0.1" fill="1" layer="4" shape="491,526 491,549 514,549 514,526"/>
  <poly id="180" type="building" color="0.7,0.3,0.1" fill="1" layer="4" shape="526,526 526,549 549,549 549,526"/>
  <poly id="181" type="building" color="0.7,0.3,0.1" fill="1" layer="4" shape="561,526 561,549 584,549 584,526"/>
  <poly id="182" type="building" color="0.7,0.3,0.1" fill="1" layer="4" shape="106,561 106,584 129,584 129,561"/>
  <poly id="183" type="building" color="0.7,0.3,0.1" fill="1" layer="4" shape="141,561 141,584 164,584 164,561"/>
  <poly id="184" type="building" color="0.7,0.3,0.1" fill="1" layer="4" shape="176,561 176,584 199,584 199,561"/>
  <poly id="185" type="building" color="0.7,0.3,0.1" fill="1" layer="4" shape="211,561 211,584 234,584 234,561"/>
  <poly id="186" type="building" color="0.7,0.3,0.1" fill="1" layer="4" shape="246,561 246,584 269,584 269,561"/>
  <poly id="187" type="building" color="0.7,0.3,0.1" fill="1" layer="4" shape="281,561 281,584 304,584 304,561"/>
  <poly id="188" type="building" color="0.7,0.3,0.1" fill="1" layer="4" shape="316,561 316,584 339,584 339,561"/>
  <poly id="189" type="building" color="0.7,0.3,0.1" fill="1" layer="4" shape="351,561 351,584 374,584 374,561"/>
  <poly id="190" type="building" color="0.7,0.3,0.1" fill="1" layer="4" shape="386,561 386,584 409,584 409,561"/>
  <poly id="191" type="building" color="0.7,0.3,0.1" fill="1" layer="4" shape="421,561 421,584 444,584 444,561"/>
  <poly id="192" type="building" color="0.7,0.3,0.1" fill="1" layer="4" shape="456,561 456,584 479,584 479,561"/>
  <poly id="193" type="building" color="0.7,0.3,0.1" fill="1" layer="4" shape="491,561 491,584 514,584 514,561"/>
  <poly id="194" type="building" color="0.7,0.3,0.1" fill="1" layer="4" shape="526,561 526,584 549,584 549,561"/>
  <poly id="195" type="building" color="0.7,0.3,0.1" fill="1" layer="4" shape="561,561 561,584 584,584 584,561"/>
  <poi width="7" height="7" layer="5" type="EgoVehicleStart" posLat="0" color="1,1,0" id="EgoVehicleStart0" x="521.9" y="168.8" angle="-90.0"/>
  <poi width="3" height="3" layer="5" type="streetSign_nextTurn_left" posLat="0" color="0,0.4,.8" x="524.1" y="196.10000000000002" angle="-180.0" id="next_turn_from_M2M3_0"/>
  <poi type="streetSign_priority" imgFile="priority.png" color="1,1,1" x="523.6999999999999" y="196.199" angle="-180.0" id="streetSign_priority_M2M3"/>
  <poi type="streetSign_yield" imgFile="yield.png" color="1,1,1" x="528.801" y="208.70000000000002" angle="-270.0" id="streetSign_yield_N3M3"/>
  <poi type="streetSign_priority" imgFile="priority.png" color="1,1,1" x="516.3000000000001" y="213.801" angle="0.0" id="streetSign_priority_M4M3"/>
  <poi type="streetSign_yield" imgFile="yield.png" color="1,1,1" x="511.199" y="201.29999999999998" angle="-90.0" id="streetSign_yield_L3M3"/>
  <poi imgFile="arrow.png" width="3" height="3" layer="5" type="Psych_Trial" posLat="0" color="1,0.3725,0" id="Psych_Trial_0_level-4_high-traffic" x="522.85" y="176.8" angle="-90.0"/>
  <poi imgFile="arrow.png" width="3" height="3" layer="5" type="Psych_Trial" posLat="0" color="1,0.3725,0" id="Psych_Trial_1_level-4_high-traffic" x="522.85" y="185.8" angle="-90.0"/>
  <poi imgFile="arrow.png" width="3" height="3" layer="5" type="Psych_Trial" posLat="0" color="1,0.3725,0" id="Psych_Trial_2_level-4_high-traffic" x="522.85" y="194.8" angle="-90.0"/>
  <poi width="3" height="3" layer="5" type="streetSign_nextTurn_straight" posLat="0" color="0,0.4,.8" x="493.9" y="209.1" angle="-270.0" id="next_turn_from_M3L3_0"/>
  <poi type="streetSign_priority" imgFile="priority.png" color="1,1,1" x="488.7" y="196.199" angle="-180.0" id="streetSign_priority_L2L3"/>
  <poi type="streetSign_yield" imgFile="yield.png" color="1,1,1" x="493.801" y="208.70000000000002" angle="-270.0" id="streetSign_yield_M3L3"/>
  <poi type="streetSign_priority" imgFile="priority.png" color="1,1,1" x="481.3" y="213.801" angle="0.0" id="streetSign_priority_L4L3"/>
  <poi type="streetSign_yield" imgFile="yield.png" color="1,1,1" x="476.199" y="201.29999999999998" angle="-90.0" id="streetSign_yield_K3L3"/>
  <poi imgFile="arrow.png" width="3" height="3" layer="5" type="Psych_Trial" posLat="0" color="1,0.3725,0" id="Psych_Trial_3_level-4_high-traffic" x="513.2" y="207.85" angle="-180.0"/>
  <poi imgFile="arrow.png" width="3" height="3" layer="5" type="Psych_Trial" posLat="0" color="1,0.3725,0" id="Psych_Trial_4_level-4_high-traffic" x="504.2" y="207.85" angle="-180.0"/>
  <poi imgFile="arrow.png" width="3" height="3" layer="5" type="Psych_Trial" posLat="0" color="1,0.3725,0" id="Psych_Trial_5_level-4_high-traffic" x="495.2" y="207.85" angle="-180.0"/>
  <poi width="3" height="3" layer="5" type="streetSign_nextTurn_right" posLat="0" color="0,0.4,.8" x="458.9" y="209.1" angle="-270.0" id="next_turn_from_L3K3_0"/>
  <poi type="streetSign_priority" imgFile="priority.png" color="1,1,1" x="453.7" y="196.199" angle="-180.0" id="streetSign_priority_K2K3"/>
  <poi type="streetSign_yield" imgFile="yield.png" color="1,1,1" x="458.801" y="208.70000000000002" angle="-270.0" id="streetSign_yield_L3K3"/>
  <poi type="streetSign_priority" imgFile="priority.png" color="1,1,1" x="446.3" y="213.801" angle="0.0" id="streetSign_priority_K4K3"/>
  <poi type="streetSign_yield" imgFile="yield.png" color="1,1,1" x="441.199" y="201.29999999999998" angle="-90.0" id="streetSign_yield_J3K3"/>
  <poi imgFile="arrow.png" width="3" height="3" layer="5" type="Psych_Trial" posLat="0" color="1,0.3725,0" id="Psych_Trial_6_level-4_low-traffic" x="478.2" y="207.85" angle="-180.0"/>
  <poi imgFile="arrow.png" width="3" height="3" layer="5" type="Psych_Trial" posLat="0" color="1,0.3725,0" id="Psych_Trial_7_level-4_low-traffic" x="469.2" y="207.85" angle="-180.0"/>
  <poi imgFile="arrow.png" width="3" height="3" layer="5" type="Psych_Trial" posLat="0" color="1,0.3725,0" id="Psych_Trial_8_level-4_low-traffic" x="460.2" y="207.85" angle="-180.0"/>
  <poi width="3" height="3" layer="5" type="streetSign_nextTurn_straight" posLat="0" color="0,0.4,.8" x="454.09999999999997" y="231.10000000000002" angle="-180.0" id="next_turn_from_K3K4_0"/>
  <poi type="streetSign_priority" imgFile="priority.png" color="1,1,1" x="453.7" y="231.199" angle="-180.0" id="streetSign_priority_K3K4"/>
  <poi type="streetSign_yield" imgFile="yield.png" color="1,1,1" x="458.801" y="243.70000000000002" angle="-270.0" id="streetSign_yield_L4K4"/>
  <poi type="streetSign_priority" imgFile="priority.png" color="1,1,1" x="446.3" y="248.801" angle="0.0" id="streetSign_priority_K5K4"/>
  <poi type="streetSign_yield" imgFile="yield.png" color="1,1,1" x="441.199" y="236.29999999999998" angle="-90.0" id="streetSign_yield_J4K4"/>
  <poi imgFile="arrow.png" width="3" height="3" layer="5" type="Psych_Trial" posLat="0" color="1,0.3725,0" id="Psych_Trial_9_level-4_low-traffic" x="452.84999999999997" y="211.8" angle="-90.0"/>
  <poi imgFile="arrow.png" width="3" height="3" layer="5" type="Psych_Trial" posLat="0" color="1,0.3725,0" id="Psych_Trial_10_level-4_low-traffic" x="452.84999999999997" y="220.8" angle="-90.0"/>
  <poi imgFile="arrow.png" width="3" height="3" layer="5" type="Psych_Trial" posLat="0" color="1,0.3725,0" id="Psych_Trial_11_level-4_low-traffic" x="452.84999999999997" y="229.8" angle="-90.0"/>
  <poi width="3" height="3" layer="5" type="streetSign_nextTurn_straight" posLat="0" color="0,0.4,.8" x="454.09999999999997" y="266.1" angle="-180.0" id="next_turn_from_K4K5_0"/>
  <poi type="streetSign_priority" imgFile="priority.png" color="1,1,1" x="453.7" y="266.199" angle="-180.0" id="streetSign_priority_K4K5"/>
  <poi type="streetSign_yield" imgFile="yield.png" color="1,1,1" x="458.801" y="278.7" angle="-270.0" id="streetSign_yield_L5K5"/>
  <poi type="streetSign_priority" imgFile="priority.png" color="1,1,1" x="446.3" y="283.801" angle="0.0" id="streetSign_priority_K6K5"/>
  <poi type="streetSign_yield" imgFile="yield.png" color="1,1,1" x="441.199" y="271.3" angle="-90.0" id="streetSign_yield_J5K5"/>
  <poi imgFile="arrow.png" width="3" height="3" layer="5" type="Psych_Trial" posLat="0" color="1,0.3725,0" id="Psych_Trial_12_level-4_low-traffic" x="452.84999999999997" y="246.8" angle="-90.0"/>
  <poi imgFile="arrow.png" width="3" height="3" layer="5" type="Psych_Trial" posLat="0" color="1,0.3725,0" id="Psych_Trial_13_level-4_low-traffic" x="452.84999999999997" y="255.8" angle="-90.0"/>
  <poi imgFile="arrow.png" width="3" height="3" layer="5" type="Psych_Trial" posLat="0" color="1,0.3725,0" id="Psych_Trial_14_level-4_low-traffic" x="452.84999999999997" y="264.8" angle="-90.0"/>
  <poi width="3" height="3" layer="5" type="streetSign_nextTurn_straight" posLat="0" color="0,0.4,.8" x="454.09999999999997" y="301.1" angle="-180.0" id="next_turn_from_K5K6_0"/>
  <poi type="streetSign_priority" imgFile="priority.png" color="1,1,1" x="453.7" y="301.199" angle="-180.0" id="streetSign_priority_K5K6"/>
  <poi type="streetSign_yield" imgFile="yield.png" color="1,1,1" x="458.801" y="313.7" angle="-270.0" id="streetSign_yield_L6K6"/>
  <poi type="streetSign_priority" imgFile="priority.png" color="1,1,1" x="446.3" y="318.801" angle="0.0" id="streetSign_priority_K7K6"/>
  <poi type="streetSign_yield" imgFile="yield.png" color="1,1,1" x="441.199" y="306.3" angle="-90.0" id="streetSign_yield_J6K6"/>
  <poi imgFile="arrow.png" width="3" height="3" layer="5" type="Psych_Trial" posLat="0" color="1,0.3725,0" id="Psych_Trial_15_level-4_low-traffic" x="452.84999999999997" y="281.8" angle="-90.0"/>