<?xml version="1.0" encoding="UTF-8"?>

<!-- generated on 2018-04-16T22:47:14 HST by Netedit Version 0.30.0
<?xml version="1.0" encoding="UTF-8"?>

<configuration xmlns:xsi="http://www.w3.org/2001/XMLSchema-instance" xsi:noNamespaceSchemaLocation="http://sumo.dlr.de/xsd/netconvertConfiguration.xsd">

    <input>
        <sumo-net-file value="/home/buse/proj/hynets/evi/networks/paderborn-north-toj/paderborn-north-toj.net.xml"/>
    </input>

    <output>
        <output-file value="/home/buse/proj/hynets/evi/networks/paderborn-north-toj/paderborn-north-toj.net.xml"/>
        <output.street-names value="true"/>
    </output>

    <processing>
        <no-turnarounds value="true"/>
        <offset.disable-normalization value="true"/>
        <lefthand value="false"/>
        <junctions.corner-detail value="0"/>
        <rectangular-lane-cut value="false"/>
    </processing>

</configuration>
-->

<net version="0.27" xmlns:xsi="http://www.w3.org/2001/XMLSchema-instance" xsi:noNamespaceSchemaLocation="http://sumo.dlr.de/xsd/net_file.xsd">

    <location netOffset="-474821.76,-5723127.50" convBoundary="8596.96,6873.86,9947.18,9033.98" origBoundary="8.350565,51.639068,8.932897,51.833637" projParameter="+proj=utm +zone=32 +ellps=WGS84 +datum=WGS84 +units=m +no_defs"/>

    <type id="highway.bridleway" priority="1" numLanes="1" speed="2.78" allow="pedestrian" oneway="1" width="2.00"/>
    <type id="highway.bus_guideway" priority="1" numLanes="1" speed="8.33" allow="bus" oneway="1"/>
    <type id="highway.bus_pedestrian" priority="5" numLanes="1" speed="6.94" allow="bus" oneway="0"/>
    <type id="highway.cycleway" priority="1" numLanes="1" speed="5.56" allow="bicycle" oneway="0" width="1.00"/>
    <type id="highway.footway" priority="1" numLanes="1" speed="8.33" allow="pedestrian" oneway="1" width="2.00"/>
    <type id="highway.ford" priority="1" numLanes="1" speed="2.78" allow="army" oneway="0"/>
    <type id="highway.living_street" priority="6" numLanes="1" speed="1.39" disallow="tram rail_urban rail rail_electric ship" oneway="0"/>
    <type id="highway.motorway" priority="13" numLanes="2" speed="41.67" allow="private emergency authority army vip passenger hov taxi bus coach delivery truck trailer motorcycle evehicle custom1 custom2" oneway="1"/>
    <type id="highway.motorway_link" priority="8" numLanes="1" speed="16.67" allow="private emergency authority army vip passenger hov taxi bus coach delivery truck trailer motorcycle evehicle custom1 custom2" oneway="1"/>
    <type id="highway.path" priority="1" numLanes="1" speed="2.78" allow="bicycle pedestrian" oneway="1" width="2.00"/>
    <type id="highway.pedestrian" priority="1" numLanes="1" speed="8.33" allow="pedestrian" oneway="1" width="2.00"/>
    <type id="highway.primary" priority="11" numLanes="1" speed="13.89" disallow="tram rail_urban rail rail_electric ship" oneway="0"/>
    <type id="highway.primary_link" priority="8" numLanes="1" speed="13.89" disallow="tram rail_urban rail rail_electric ship" oneway="0"/>
    <type id="highway.raceway" priority="14" numLanes="2" speed="83.33" allow="vip" oneway="0"/>
    <type id="highway.residential" priority="7" numLanes="1" speed="13.89" disallow="tram rail_urban rail rail_electric ship" oneway="0"/>
    <type id="highway.road" priority="7" numLanes="1" speed="13.89" disallow="tram rail_urban rail rail_electric ship" oneway="0"/>
    <type id="highway.secondary" priority="10" numLanes="1" speed="13.89" disallow="tram rail_urban rail rail_electric ship" oneway="0"/>
    <type id="highway.secondary_link" priority="8" numLanes="1" speed="13.89" disallow="tram rail_urban rail rail_electric ship" oneway="0"/>
    <type id="highway.service" priority="5" numLanes="1" speed="11.11" disallow="tram rail_urban rail rail_electric ship" oneway="0"/>
    <type id="highway.services" priority="1" numLanes="1" speed="8.33" disallow="tram rail_urban rail rail_electric ship" oneway="0"/>
    <type id="highway.stairs" priority="1" numLanes="1" speed="1.39" allow="pedestrian" oneway="1" width="2.00"/>
    <type id="highway.step" priority="1" numLanes="1" speed="1.39" allow="pedestrian" oneway="1" width="2.00"/>
    <type id="highway.steps" priority="1" numLanes="1" speed="1.39" allow="pedestrian" oneway="1" width="2.00"/>
    <type id="highway.tertiary" priority="9" numLanes="1" speed="13.89" disallow="tram rail_urban rail rail_electric ship" oneway="0"/>
    <type id="highway.tertiary_link" priority="5" numLanes="1" speed="13.89" disallow="tram rail_urban rail rail_electric ship" oneway="0"/>
    <type id="highway.track" priority="1" numLanes="1" speed="5.56" disallow="tram rail_urban rail rail_electric ship" oneway="0"/>
    <type id="highway.trunk" priority="12" numLanes="1" speed="13.89" disallow="tram rail_urban rail rail_electric bicycle pedestrian ship" oneway="0"/>
    <type id="highway.trunk_link" priority="8" numLanes="1" speed="13.89" disallow="tram rail_urban rail rail_electric bicycle pedestrian ship" oneway="0"/>
    <type id="highway.unclassified" priority="8" numLanes="1" speed="13.89" disallow="tram rail_urban rail rail_electric ship" oneway="0"/>
    <type id="highway.unsurfaced" priority="1" numLanes="1" speed="8.33" disallow="tram rail_urban rail rail_electric ship" oneway="0"/>
    <type id="railway.light_rail" priority="15" numLanes="1" speed="27.78" allow="rail_urban" oneway="1"/>
    <type id="railway.preserved" priority="15" numLanes="1" speed="27.78" allow="rail" oneway="1"/>
    <type id="railway.rail" priority="15" numLanes="1" speed="83.33" allow="rail rail_electric" oneway="1"/>
    <type id="railway.subway" priority="15" numLanes="1" speed="27.78" allow="rail_urban" oneway="1"/>
    <type id="railway.tram" priority="15" numLanes="1" speed="13.89" allow="tram" oneway="1"/>

    <edge id=":1042616973_0" function="internal">
        <lane id=":1042616973_0_0" index="0" disallow="tram rail_urban rail rail_electric ship" speed="13.89" length="9.65" shape="8945.51,8131.93 8941.67,8123.05"/>
        <lane id=":1042616973_0_1" index="1" disallow="tram rail_urban rail rail_electric ship" speed="13.89" length="9.65" shape="8948.53,8130.60 8944.71,8121.76"/>
    </edge>
    <edge id=":1042616973_2" function="internal">
        <lane id=":1042616973_2_0" index="0" disallow="tram rail_urban rail rail_electric ship" speed="12.50" length="4.65" shape="8948.53,8130.60 8947.91,8127.66 8948.44,8126.10"/>
    </edge>
    <edge id=":1042616973_8" function="internal">
        <lane id=":1042616973_8_0" index="0" speed="12.50" length="8.77" shape="8948.44,8126.10 8948.80,8125.04 8951.18,8122.76 8955.07,8120.81"/>
    </edge>
    <edge id=":1042616973_3" function="internal">
        <lane id=":1042616973_3_0" index="0" disallow="tram rail_urban rail rail_electric ship" speed="12.50" length="5.06" shape="8956.25,8123.89 8955.04,8124.57 8954.35,8125.47 8954.20,8126.59 8954.57,8127.94"/>
    </edge>
    <edge id=":1042616973_4" function="internal">
        <lane id=":1042616973_4_0" index="0" disallow="tram rail_urban rail rail_electric ship" speed="12.50" length="13.10" shape="8956.25,8123.89 8952.10,8125.08 8948.79,8125.12 8946.33,8124.01 8944.71,8121.76"/>
    </edge>
    <edge id=":1042616973_5" function="internal">
        <lane id=":1042616973_5_0" index="0" disallow="tram rail_urban rail rail_electric ship" speed="12.50" length="5.18" shape="8950.79,8119.19 8951.50,8120.34 8952.45,8121.00 8953.64,8121.15 8955.07,8120.81"/>
    </edge>
    <edge id=":1042616973_6" function="internal">
        <lane id=":1042616973_6_0" index="0" disallow="tram rail_urban rail rail_electric ship" speed="13.89" length="9.55" shape="8950.79,8119.19 8954.57,8127.94"/>
        <lane id=":1042616973_6_1" index="1" disallow="tram rail_urban rail rail_electric ship" speed="13.89" length="9.55" shape="8947.75,8120.48 8951.55,8129.27"/>
    </edge>
    <edge id=":1042616996_0" function="internal">
        <lane id=":1042616996_0_0" index="0" disallow="tram rail_urban rail rail_electric ship" speed="11.11" length="4.82" shape="8993.57,8149.53 8995.02,8149.85 8995.71,8150.47 8995.62,8151.39 8994.77,8152.61"/>
    </edge>
    <edge id=":1042617016_0" function="internal">
        <lane id=":1042617016_0_0" index="0" disallow="tram rail_urban rail rail_electric ship" speed="11.11" length="5.09" shape="8968.07,8122.60 8967.36,8121.44 8966.43,8120.78 8965.27,8120.62 8963.89,8120.94"/>
    </edge>
    <edge id=":1042617016_1" function="internal">
        <lane id=":1042617016_1_0" index="0" disallow="tram rail_urban rail rail_electric ship" speed="11.11" length="9.47" shape="8968.07,8122.60 8964.45,8113.84"/>
    </edge>
    <edge id=":1042617016_2" function="internal">
        <lane id=":1042617016_2_0" index="0" disallow="tram rail_urban rail rail_electric ship" speed="11.11" length="9.40" shape="8967.52,8112.62 8971.10,8121.30"/>
    </edge>
    <edge id=":1042617016_3" function="internal">
        <lane id=":1042617016_3_0" index="0" disallow="tram rail_urban rail rail_electric ship" speed="11.11" length="10.39" shape="8967.52,8112.62 8968.19,8115.39 8967.81,8117.70 8966.38,8119.55 8963.89,8120.94"/>
    </edge>
    <edge id=":1042617016_4" function="internal">
        <lane id=":1042617016_4_0" index="0" disallow="tram rail_urban rail rail_electric ship" speed="11.11" length="5.02" shape="8962.70,8117.86 8963.90,8117.19 8964.60,8116.30 8964.78,8115.18 8964.45,8113.84"/>
    </edge>
    <edge id=":1042617016_5" function="internal">
        <lane id=":1042617016_5_0" index="0" disallow="tram rail_urban rail rail_electric ship" speed="11.11" length="10.27" shape="8962.70,8117.86 8965.46,8117.22 8967.78,8117.58 8969.66,8118.94 8971.10,8121.30"/>
    </edge>
    <edge id=":1042940010_0" function="internal">
        <lane id=":1042940010_0_0" index="0" disallow="tram rail_urban rail rail_electric ship" speed="8.33" length="9.55" shape="8858.42,7727.39 8849.24,7730.03"/>
    </edge>
    <edge id=":1042940010_1" function="internal">
        <lane id=":1042940010_1_0" index="0" disallow="tram rail_urban rail rail_electric ship" speed="9.72" length="5.24" shape="8858.42,7727.39 8855.67,7727.78 8853.42,7727.17 8853.33,7727.09"/>
    </edge>
    <edge id=":1042940010_6" function="internal">
        <lane id=":1042940010_6_0" index="0" speed="9.72" length="5.12" shape="8853.33,7727.09 8851.67,7725.58 8850.41,7722.99"/>
    </edge>
    <edge id=":1042940010_2" function="internal">
        <lane id=":1042940010_2_0" index="0" disallow="tram rail_urban rail rail_electric ship" speed="9.72" length="5.15" shape="8853.55,7721.97 8854.18,7723.28 8855.04,7724.09 8856.15,7724.41 8857.50,7724.22"/>
    </edge>
    <edge id=":1042940010_3" function="internal">
        <lane id=":1042940010_3_0" index="0" disallow="tram rail_urban rail rail_electric ship" speed="9.72" length="10.52" shape="8853.55,7721.97 8854.05,7724.83 8853.49,7727.12 8851.89,7728.86 8849.24,7730.03"/>
    </edge>
    <edge id=":1042940010_4" function="internal">
        <lane id=":1042940010_4_0" index="0" disallow="tram rail_urban rail rail_electric ship" speed="9.72" length="5.05" shape="8848.35,7726.86 8849.62,7726.29 8850.39,7725.46 8850.65,7724.36 8850.41,7722.99"/>
    </edge>
    <edge id=":1042940010_5" function="internal">
        <lane id=":1042940010_5_0" index="0" disallow="tram rail_urban rail rail_electric ship" speed="8.33" length="9.52" shape="8848.35,7726.86 8857.50,7724.22"/>
    </edge>
    <edge id=":1042998202_0" function="internal">
        <lane id=":1042998202_0_0" index="0" disallow="tram rail_urban rail rail_electric ship" speed="13.89" length="0.28" shape="8811.41,7803.44 8811.31,7803.19"/>
    </edge>
    <edge id=":1042998202_1" function="internal">
        <lane id=":1042998202_1_0" index="0" disallow="tram rail_urban rail rail_electric ship" speed="13.89" length="0.31" shape="8814.34,7801.88 8814.46,7802.17"/>
    </edge>
    <edge id=":1042998216_0" function="internal">
        <lane id=":1042998216_0_0" index="0" disallow="tram rail_urban rail rail_electric ship" speed="11.11" length="7.49" shape="8794.37,7711.34 8793.65,7709.24 8793.05,7707.82 8792.18,7706.57 8790.67,7704.97"/>
    </edge>
    <edge id=":1042998216_1" function="internal">
        <lane id=":1042998216_1_0" index="0" disallow="tram rail_urban rail rail_electric ship" speed="11.11" length="9.40" shape="8794.37,7711.34 8793.77,7708.60 8794.03,7706.38 8795.15,7704.67 8797.14,7703.49"/>
    </edge>
    <edge id=":1042998216_2" function="internal">
        <lane id=":1042998216_2_0" index="0" disallow="tram rail_urban rail rail_electric ship" speed="11.11" length="8.30" shape="8798.32,7706.57 8796.21,7707.09 8794.24,7707.00 8792.39,7706.29 8790.67,7704.97"/>
    </edge>
    <edge id=":1042998216_3" function="internal">
        <lane id=":1042998216_3_0" index="0" disallow="tram rail_urban rail rail_electric ship" speed="11.11" length="4.51" shape="8792.98,7702.62 8793.92,7703.34 8794.92,7703.72 8796.00,7703.77 8797.14,7703.49"/>
    </edge>
    <edge id=":1042998318_0" function="internal">
        <lane id=":1042998318_0_0" index="0" disallow="tram rail_urban rail rail_electric ship" speed="13.89" length="9.50" shape="8760.72,7682.83 8757.11,7674.05"/>
    </edge>
    <edge id=":1042998318_1" function="internal">
        <lane id=":1042998318_1_0" index="0" disallow="tram rail_urban rail rail_electric ship" speed="12.50" length="5.24" shape="8760.72,7682.83 8760.04,7680.12 8760.39,7677.81 8760.46,7677.72"/>
    </edge>
    <edge id=":1042998318_6" function="internal">
        <lane id=":1042998318_6_0" index="0" speed="12.50" length="5.08" shape="8760.46,7677.72 8761.79,7675.92 8764.22,7674.45"/>
    </edge>
    <edge id=":1042998318_2" function="internal">
        <lane id=":1042998318_2_0" index="0" disallow="tram rail_urban rail rail_electric ship" speed="12.50" length="5.06" shape="8765.52,7677.48 8764.32,7678.20 8763.63,7679.13 8763.44,7680.25 8763.77,7681.58"/>
    </edge>
    <edge id=":1042998318_3" function="internal">
        <lane id=":1042998318_3_0" index="0" disallow="tram rail_urban rail rail_electric ship" speed="12.50" length="10.40" shape="8765.52,7677.48 8762.77,7678.22 8760.44,7677.90 8758.56,7676.51 8757.11,7674.05"/>
    </edge>
    <edge id=":1042998318_4" function="internal">
        <lane id=":1042998318_4_0" index="0" disallow="tram rail_urban rail rail_electric ship" speed="12.50" length="5.02" shape="8760.16,7672.79 8760.86,7673.98 8761.77,7674.65 8762.89,7674.81 8764.22,7674.45"/>
    </edge>
    <edge id=":1042998318_5" function="internal">
        <lane id=":1042998318_5_0" index="0" disallow="tram rail_urban rail rail_electric ship" speed="13.89" length="9.50" shape="8760.16,7672.79 8763.77,7681.58"/>
    </edge>
    <edge id=":1042998531_0" function="internal">
        <lane id=":1042998531_0_0" index="0" disallow="tram rail_urban rail rail_electric ship" speed="11.11" length="4.82" shape="8763.09,7643.51 8763.37,7642.05 8763.98,7641.36 8764.90,7641.42 8766.13,7642.25"/>
    </edge>
    <edge id=":1042998955_0" function="internal">
        <lane id=":1042998955_0_0" index="0" disallow="tram rail_urban rail rail_electric ship" speed="13.89" length="3.97" shape="8930.75,8097.23 8926.54,8095.75"/>
        <lane id=":1042998955_0_1" index="1" disallow="tram rail_urban rail rail_electric ship" speed="13.89" length="3.97" shape="8933.79,8095.94 8929.58,8094.47"/>
        <lane id=":1042998955_0_2" index="2" disallow="tram rail_urban rail rail_electric ship" speed="13.89" length="3.97" shape="8933.79,8095.94 8932.62,8093.18"/>
    </edge>
    <edge id=":1042998955_3" function="internal">
        <lane id=":1042998955_3_0" index="0" disallow="tram rail_urban rail rail_electric ship" speed="13.89" length="3.00" shape="8938.69,8090.61 8939.86,8093.37"/>
        <lane id=":1042998955_3_1" index="1" disallow="tram rail_urban rail rail_electric ship" speed="13.89" length="3.00" shape="8935.65,8091.90 8936.82,8094.66"/>
    </edge>
    <edge id=":1042999132_0" function="internal">
        <lane id=":1042999132_0_0" index="0" disallow="tram rail_urban rail rail_electric ship" speed="11.11" length="4.82" shape="8802.31,7658.05 8803.77,7658.32 8804.48,7658.92 8804.42,7659.84 8803.61,7661.09"/>
    </edge>
    <edge id=":1042999137_0" function="internal">
        <lane id=":1042999137_0_0" index="0" disallow="tram rail_urban rail rail_electric ship" speed="11.11" length="5.01" shape="8776.58,7676.12 8775.88,7674.93 8774.97,7674.26 8773.85,7674.11 8772.52,7674.47"/>
    </edge>
    <edge id=":1042999137_1" function="internal">
        <lane id=":1042999137_1_0" index="0" disallow="tram rail_urban rail rail_electric ship" speed="11.11" length="9.59" shape="8776.58,7676.12 8772.91,7667.26"/>
    </edge>
    <edge id=":1042999137_2" function="internal">
        <lane id=":1042999137_2_0" index="0" disallow="tram rail_urban rail rail_electric ship" speed="11.11" length="10.40" shape="8776.58,7676.12 8775.87,7673.37 8776.21,7671.04 8777.60,7669.13 8780.02,7667.65"/>
    </edge>
    <edge id=":1042999137_3" function="internal">
        <lane id=":1042999137_3_0" index="0" disallow="tram rail_urban rail rail_electric ship" speed="11.11" length="5.12" shape="8781.33,7670.68 8780.13,7671.41 8779.45,7672.35 8779.28,7673.50 8779.63,7674.85"/>
    </edge>
    <edge id=":1042999137_4" function="internal">
        <lane id=":1042999137_4_0" index="0" disallow="tram rail_urban rail rail_electric ship" speed="11.11" length="9.59" shape="8781.33,7670.68 8772.52,7674.47"/>
    </edge>
    <edge id=":1042999137_5" function="internal">
        <lane id=":1042999137_5_0" index="0" disallow="tram rail_urban rail rail_electric ship" speed="11.11" length="10.39" shape="8781.33,7670.68 8778.57,7671.42 8776.25,7671.10 8774.37,7669.71 8772.91,7667.26"/>
    </edge>
    <edge id=":1042999137_6" function="internal">
        <lane id=":1042999137_6_0" index="0" disallow="tram rail_urban rail rail_electric ship" speed="11.11" length="5.02" shape="8775.96,7666.00 8776.66,7667.18 8777.57,7667.85 8778.69,7668.01 8780.02,7667.65"/>
    </edge>
    <edge id=":1042999137_7" function="internal">
        <lane id=":1042999137_7_0" index="0" disallow="tram rail_urban rail rail_electric ship" speed="11.11" length="9.59" shape="8775.96,7666.00 8779.63,7674.85"/>
    </edge>
    <edge id=":1042999137_8" function="internal">
        <lane id=":1042999137_8_0" index="0" disallow="tram rail_urban rail rail_electric ship" speed="11.11" length="10.40" shape="8775.96,7666.00 8776.67,7668.75 8776.33,7671.08 8774.95,7672.99 8772.52,7674.47"/>
    </edge>
    <edge id=":1042999137_9" function="internal">
        <lane id=":1042999137_9_0" index="0" disallow="tram rail_urban rail rail_electric ship" speed="11.11" length="5.13" shape="8771.22,7671.44 8772.41,7670.71 8773.09,7669.77 8773.26,7668.62 8772.91,7667.26"/>
    </edge>
    <edge id=":1042999137_10" function="internal">
        <lane id=":1042999137_10_0" index="0" disallow="tram rail_urban rail rail_electric ship" speed="11.11" length="9.59" shape="8771.22,7671.44 8780.02,7667.65"/>
    </edge>
    <edge id=":1042999137_11" function="internal">
        <lane id=":1042999137_11_0" index="0" disallow="tram rail_urban rail rail_electric ship" speed="11.11" length="10.39" shape="8771.22,7671.44 8773.97,7670.69 8776.29,7671.01 8778.18,7672.40 8779.63,7674.85"/>
    </edge>
    <edge id=":1261486479_0" function="internal">
        <lane id=":1261486479_0_0" index="0" disallow="tram rail_urban rail rail_electric ship" speed="13.89" length="0.14" shape="8949.10,6963.81 8948.98,6963.74"/>
    </edge>
    <edge id=":1261486479_1" function="internal">
        <lane id=":1261486479_1_0" index="0" disallow="tram rail_urban rail rail_electric ship" speed="13.89" length="0.28" shape="8950.66,6960.90 8950.90,6961.04"/>
    </edge>
    <edge id=":130065332_0" function="internal">
        <lane id=":130065332_0_0" index="0" disallow="tram rail_urban rail rail_electric ship" speed="8.33" length="6.93" shape="9329.66,7584.14 9328.60,7583.43 9327.14,7583.16 9325.30,7583.35 9323.07,7583.99"/>
    </edge>
    <edge id=":130065332_1" function="internal">
        <lane id=":130065332_1_0" index="0" disallow="tram rail_urban rail rail_electric ship" speed="8.33" length="9.95" shape="9329.66,7584.14 9323.08,7576.69"/>
    </edge>
    <edge id=":130065332_2" function="internal">
        <lane id=":130065332_2_0" index="0" disallow="tram rail_urban rail rail_electric ship" speed="4.86" length="8.49" shape="9329.66,7584.14 9328.90,7582.71 9328.99,7580.99 9329.95,7578.98 9331.75,7576.68"/>
    </edge>
    <edge id=":130065332_3" function="internal">
        <lane id=":130065332_3_0" index="0" disallow="tram rail_urban rail rail_electric ship" speed="4.86" length="7.44" shape="9325.58,7574.53 9327.44,7576.39 9329.09,7577.36 9330.53,7577.46 9331.75,7576.68"/>
    </edge>
    <edge id=":130065332_4" function="internal">
        <lane id=":130065332_4_0" index="0" disallow="tram rail_urban rail rail_electric ship" speed="8.33" length="9.83" shape="9325.58,7574.53 9332.08,7581.90"/>
    </edge>
    <edge id=":130065332_5" function="internal">
        <lane id=":130065332_5_0" index="0" disallow="tram rail_urban rail rail_electric ship" speed="8.33" length="12.46" shape="9325.58,7574.53 9327.54,7577.58 9327.77,7580.17 9326.28,7582.31 9323.07,7583.99"/>
    </edge>
    <edge id=":130065332_6" function="internal">
        <lane id=":130065332_6_0" index="0" disallow="tram rail_urban rail rail_electric ship" speed="8.33" length="5.52" shape="9321.96,7580.88 9323.39,7580.13 9324.05,7579.19 9323.94,7578.04 9323.08,7576.69"/>
    </edge>
    <edge id=":130065332_7" function="internal">
        <lane id=":130065332_7_0" index="0" disallow="tram rail_urban rail rail_electric ship" speed="4.86" length="10.86" shape="9321.96,7580.88 9325.01,7580.03 9327.36,7579.53 9329.46,7578.66 9331.75,7576.68"/>
    </edge>
    <edge id=":130065332_8" function="internal">
        <lane id=":130065332_8_0" index="0" disallow="tram rail_urban rail rail_electric ship" speed="8.33" length="10.77" shape="9321.96,7580.88 9325.19,7580.02 9327.95,7579.91 9330.25,7580.53 9332.08,7581.90"/>
    </edge>
    <edge id=":130065334_0" function="internal">
        <lane id=":130065334_0_0" index="0" disallow="tram rail_urban rail rail_electric ship" speed="13.89" length="6.16" shape="9502.62,7392.19 9498.36,7387.75"/>
    </edge>
    <edge id=":130065334_1" function="internal">
        <lane id=":130065334_1_0" index="0" disallow="tram rail_urban rail rail_electric ship" speed="13.89" length="6.06" shape="9500.75,7385.48 9504.95,7389.85"/>
    </edge>
    <edge id=":130065334_2" function="internal">
        <lane id=":130065334_2_0" index="0" disallow="tram rail_urban rail rail_electric ship" speed="13.89" length="5.10" shape="9498.24,7392.30 9499.06,7391.12 9499.35,7389.97 9499.12,7388.85 9498.36,7387.75"/>
    </edge>
    <edge id=":130065334_3" function="internal">
        <lane id=":130065334_3_0" index="0" disallow="tram rail_urban rail rail_electric ship" speed="13.89" length="7.97" shape="9498.24,7392.30 9500.29,7390.35 9502.10,7389.29 9503.65,7389.13 9504.95,7389.85"/>
    </edge>
    <edge id=":145140388_0" function="internal">
        <lane id=":145140388_0_0" index="0" disallow="tram rail_urban rail rail_electric ship" speed="8.33" length="8.03" shape="9426.63,7689.48 9425.32,7688.50 9423.62,7688.03 9421.53,7688.08 9419.05,7688.65"/>
    </edge>
    <edge id=":145140388_1" function="internal">
        <lane id=":145140388_1_0" index="0" disallow="tram rail_urban rail rail_electric ship" speed="8.33" length="11.02" shape="9426.63,7689.48 9419.20,7681.34"/>
    </edge>
    <edge id=":145140388_2" function="internal">
        <lane id=":145140388_2_0" index="0" disallow="tram rail_urban rail rail_electric ship" speed="8.33" length="10.36" shape="9426.63,7689.48 9425.18,7687.26 9424.77,7684.98 9425.39,7682.62 9427.04,7680.18"/>
    </edge>
    <edge id=":145140388_3" function="internal">
        <lane id=":145140388_3_0" index="0" disallow="tram rail_urban rail rail_electric ship" speed="8.33" length="5.47" shape="9429.52,7682.36 9428.59,7683.69 9428.21,7684.95 9428.37,7686.15 9429.08,7687.27"/>
    </edge>
    <edge id=":145140388_4" function="internal">
        <lane id=":145140388_4_0" index="0" disallow="tram rail_urban rail rail_electric ship" speed="8.33" length="12.42" shape="9429.52,7682.36 9427.17,7684.72 9424.84,7686.36 9422.24,7687.57 9419.05,7688.65"/>
    </edge>
    <edge id=":145140388_5" function="internal">
        <lane id=":145140388_5_0" index="0" disallow="tram rail_urban rail rail_electric ship" speed="8.33" length="12.10" shape="9429.52,7682.36 9427.16,7684.25 9424.65,7684.71 9421.99,7683.74 9419.20,7681.34"/>
    </edge>
    <edge id=":145140388_6" function="internal">
        <lane id=":145140388_6_0" index="0" disallow="tram rail_urban rail rail_electric ship" speed="8.33" length="6.38" shape="9421.62,7679.11 9423.18,7680.50 9424.61,7681.14 9425.89,7681.04 9427.04,7680.18"/>
    </edge>
    <edge id=":145140388_7" function="internal">
        <lane id=":145140388_7_0" index="0" disallow="tram rail_urban rail rail_electric ship" speed="8.33" length="11.05" shape="9421.62,7679.11 9429.08,7687.27"/>
    </edge>
    <edge id=":145140388_8" function="internal">
        <lane id=":145140388_8_0" index="0" disallow="tram rail_urban rail rail_electric ship" speed="8.33" length="12.99" shape="9421.62,7679.11 9423.81,7682.26 9424.12,7684.90 9422.53,7687.03 9419.05,7688.65"/>
    </edge>
    <edge id=":145140388_9" function="internal">
        <lane id=":145140388_9_0" index="0" disallow="tram rail_urban rail rail_electric ship" speed="8.33" length="5.66" shape="9418.08,7685.50 9419.59,7684.79 9420.28,7683.86 9420.15,7682.71 9419.20,7681.34"/>
    </edge>
    <edge id=":145140388_10" function="internal">
        <lane id=":145140388_10_0" index="0" disallow="tram rail_urban rail rail_electric ship" speed="8.33" length="10.65" shape="9418.08,7685.50 9421.03,7684.57 9423.11,7683.69 9424.92,7682.39 9427.04,7680.18"/>
    </edge>
    <edge id=":145140388_11" function="internal">
        <lane id=":145140388_11_0" index="0" disallow="tram rail_urban rail rail_electric ship" speed="8.33" length="11.78" shape="9418.08,7685.50 9421.52,7684.76 9424.50,7684.80 9427.02,7685.64 9429.08,7687.27"/>
    </edge>
    <edge id=":145140390_0" function="internal">
        <lane id=":145140390_0_0" index="0" disallow="tram rail_urban rail rail_electric ship" speed="13.89" length="4.82" shape="9358.89,7809.31 9358.97,7810.79 9358.55,7811.61 9357.65,7811.78 9356.25,7811.27"/>
    </edge>
    <edge id=":145215975_0" function="internal">
        <lane id=":145215975_0_0" index="0" disallow="tram rail_urban rail rail_electric ship" speed="13.89" length="9.66" shape="8692.46,7517.07 8688.69,7508.17"/>
    </edge>
    <edge id=":145215975_1" function="internal">
        <lane id=":145215975_1_0" index="0" disallow="tram rail_urban rail rail_electric ship" speed="13.89" length="5.46" shape="8692.46,7517.07 8691.62,7513.77 8692.06,7511.76"/>
    </edge>
    <edge id=":145215975_6" function="internal">
        <lane id=":145215975_6_0" index="0" speed="13.89" length="6.42" shape="8692.06,7511.76 8692.16,7511.29 8694.07,7509.62 8697.37,7508.78"/>
    </edge>
    <edge id=":145215975_2" function="internal">
        <lane id=":145215975_2_0" index="0" disallow="tram rail_urban rail rail_electric ship" speed="13.89" length="5.38" shape="8697.73,7512.06 8696.24,7512.44 8695.37,7513.19 8695.13,7514.32 8695.51,7515.81"/>
    </edge>
    <edge id=":145215975_3" function="internal">
        <lane id=":145215975_3_0" index="0" disallow="tram rail_urban rail rail_electric ship" speed="13.89" length="10.58" shape="8697.73,7512.06 8694.55,7512.10 8691.98,7511.47 8690.03,7510.16 8688.69,7508.17"/>
    </edge>
    <edge id=":145215975_4" function="internal">
        <lane id=":145215975_4_0" index="0" disallow="tram rail_urban rail rail_electric ship" speed="13.89" length="6.38" shape="8691.71,7506.84 8692.47,7507.88 8693.66,7508.54 8695.30,7508.85 8697.37,7508.78"/>
    </edge>
    <edge id=":145215975_5" function="internal">
        <lane id=":145215975_5_0" index="0" disallow="tram rail_urban rail rail_electric ship" speed="13.89" length="9.74" shape="8691.71,7506.84 8695.51,7515.81"/>
    </edge>
    <edge id=":1641274906_0" function="internal">
        <lane id=":1641274906_0_0" index="0" disallow="tram rail_urban rail rail_electric ship" speed="11.11" length="5.54" shape="9543.82,7820.14 9542.77,7819.31 9541.60,7819.04 9540.29,7819.31 9538.86,7820.15"/>
    </edge>
    <edge id=":1641274906_1" function="internal">
        <lane id=":1641274906_1_0" index="0" disallow="tram rail_urban rail rail_electric ship" speed="8.33" length="9.62" shape="9543.82,7820.14 9537.25,7813.12"/>
    </edge>
    <edge id=":1641274906_2" function="internal">
        <lane id=":1641274906_2_0" index="0" disallow="tram rail_urban rail rail_electric ship" speed="8.33" length="9.76" shape="9539.61,7810.82 9546.28,7817.94"/>
    </edge>
    <edge id=":1641274906_3" function="internal">
        <lane id=":1641274906_3_0" index="0" disallow="tram rail_urban rail rail_electric ship" speed="11.11" length="11.04" shape="9539.61,7810.82 9541.43,7813.31 9541.91,7815.70 9541.05,7817.97 9538.86,7820.15"/>
    </edge>
    <edge id=":1641274906_4" function="internal">
        <lane id=":1641274906_4_0" index="0" disallow="tram rail_urban rail rail_electric ship" speed="11.11" length="5.17" shape="9536.89,7817.49 9537.92,7816.48 9538.32,7815.41 9538.10,7814.29 9537.25,7813.12"/>
    </edge>
    <edge id=":1641274906_5" function="internal">
        <lane id=":1641274906_5_0" index="0" disallow="tram rail_urban rail rail_electric ship" speed="11.11" length="10.50" shape="9536.89,7817.49 9539.51,7816.02 9541.95,7815.60 9544.21,7816.24 9546.28,7817.94"/>
    </edge>
    <edge id=":1641274907_0" function="internal">