<?xml version="1.0" encoding="UTF-8"?>

<!-- generated on 28.03.2018 17:22:41 by Netedit Version 0.32.0
<?xml version="1.0" encoding="UTF-8"?>

<configuration xmlns:xsi="http://www.w3.org/2001/XMLSchema-instance" xsi:noNamespaceSchemaLocation="http://sumo.dlr.de/xsd/netconvertConfiguration.xsd">

    <input>
        <sumo-net-file value="C:\Users\mario.franke\Documents\bachelor-thesis\Unity3D-Umgebung\bachelor-thesis-back-up-0703\bachelor-thesis\Unity3D-Umgebung\GenerateSimulationForUnity3D\output\map.net.xml"/>
    </input>

    <output>
        <output-file value="C:\Users\mario.franke\Documents\bachelor-thesis\Unity3D-Umgebung\bachelor-thesis-back-up-0703\bachelor-thesis\Unity3D-Umgebung\GenerateSimulationForUnity3D\output\map.net.xml"/>
        <output.street-names value="true"/>
    </output>

    <processing>
        <no-turnarounds value="true"/>
        <offset.disable-normalization value="true"/>
        <lefthand value="false"/>
        <junctions.corner-detail value="0"/>
        <rectangular-lane-cut value="false"/>
        <walkingareas value="false"/>
    </processing>

</configuration>
-->

<net version="0.27" xmlns:xsi="http://www.w3.org/2001/XMLSchema-instance" xsi:noNamespaceSchemaLocation="http://sumo.dlr.de/xsd/net_file.xsd">

    <location netOffset="-474821.76,-5723127.50" convBoundary="7468.03,6136.06,8986.01,7302.80" origBoundary="8.350565,51.639068,8.932897,51.833637" projParameter="+proj=utm +zone=32 +ellps=WGS84 +datum=WGS84 +units=m +no_defs"/>

    <type id="highway.bridleway" priority="1" numLanes="1" speed="2.78" allow="pedestrian" oneway="1" width="2.00"/>
    <type id="highway.bus_guideway" priority="1" numLanes="1" speed="8.33" allow="bus" oneway="1"/>
    <type id="highway.bus_pedestrian" priority="5" numLanes="1" speed="6.94" allow="bus" oneway="0"/>
    <type id="highway.cycleway" priority="1" numLanes="1" speed="5.56" allow="bicycle" oneway="0" width="1.00"/>
    <type id="highway.footway" priority="1" numLanes="1" speed="8.33" allow="pedestrian" oneway="1" width="2.00"/>
    <type id="highway.ford" priority="1" numLanes="1" speed="2.78" allow="army" oneway="0"/>
    <type id="highway.living_street" priority="6" numLanes="1" speed="1.39" disallow="tram rail_urban rail rail_electric ship" oneway="0"/>
    <type id="highway.motorway" priority="13" numLanes="2" speed="41.67" allow="private emergency authority army vip passenger hov taxi bus coach delivery truck trailer motorcycle evehicle custom1 custom2" oneway="1"/>
    <type id="highway.motorway_link" priority="8" numLanes="1" speed="16.67" allow="private emergency authority army vip passenger hov taxi bus coach delivery truck trailer motorcycle evehicle custom1 custom2" oneway="1"/>
    <type id="highway.path" priority="1" numLanes="1" speed="2.78" allow="bicycle pedestrian" oneway="1" width="2.00"/>
    <type id="highway.pedestrian" priority="1" numLanes="1" speed="8.33" allow="pedestrian" oneway="1" width="2.00"/>
    <type id="highway.primary" priority="11" numLanes="1" speed="13.89" disallow="tram rail_urban rail rail_electric ship" oneway="0"/>
    <type id="highway.primary_link" priority="8" numLanes="1" speed="13.89" disallow="tram rail_urban rail rail_electric ship" oneway="0"/>
    <type id="highway.raceway" priority="14" numLanes="2" speed="83.33" allow="vip" oneway="0"/>
    <type id="highway.residential" priority="7" numLanes="1" speed="13.89" disallow="tram rail_urban rail rail_electric ship" oneway="0"/>
    <type id="highway.road" priority="7" numLanes="1" speed="13.89" disallow="tram rail_urban rail rail_electric ship" oneway="0"/>
    <type id="highway.secondary" priority="10" numLanes="1" speed="13.89" disallow="tram rail_urban rail rail_electric ship" oneway="0"/>
    <type id="highway.secondary_link" priority="8" numLanes="1" speed="13.89" disallow="tram rail_urban rail rail_electric ship" oneway="0"/>
    <type id="highway.service" priority="5" numLanes="1" speed="11.11" disallow="tram rail_urban rail rail_electric ship" oneway="0"/>
    <type id="highway.services" priority="1" numLanes="1" speed="8.33" disallow="tram rail_urban rail rail_electric ship" oneway="0"/>
    <type id="highway.stairs" priority="1" numLanes="1" speed="1.39" allow="pedestrian" oneway="1" width="2.00"/>
    <type id="highway.step" priority="1" numLanes="1" speed="1.39" allow="pedestrian" oneway="1" width="2.00"/>
    <type id="highway.steps" priority="1" numLanes="1" speed="1.39" allow="pedestrian" oneway="1" width="2.00"/>
    <type id="highway.tertiary" priority="9" numLanes="1" speed="13.89" disallow="tram rail_urban rail rail_electric ship" oneway="0"/>
    <type id="highway.tertiary_link" priority="5" numLanes="1" speed="13.89" disallow="tram rail_urban rail rail_electric ship" oneway="0"/>
    <type id="highway.track" priority="1" numLanes="1" speed="5.56" disallow="tram rail_urban rail rail_electric ship" oneway="0"/>
    <type id="highway.trunk" priority="12" numLanes="1" speed="13.89" disallow="tram rail_urban rail rail_electric bicycle pedestrian ship" oneway="0"/>
    <type id="highway.trunk_link" priority="8" numLanes="1" speed="13.89" disallow="tram rail_urban rail rail_electric bicycle pedestrian ship" oneway="0"/>
    <type id="highway.unclassified" priority="8" numLanes="1" speed="13.89" disallow="tram rail_urban rail rail_electric ship" oneway="0"/>
    <type id="highway.unsurfaced" priority="1" numLanes="1" speed="8.33" disallow="tram rail_urban rail rail_electric ship" oneway="0"/>
    <type id="railway.light_rail" priority="15" numLanes="1" speed="27.78" allow="rail_urban" oneway="1"/>
    <type id="railway.preserved" priority="15" numLanes="1" speed="27.78" allow="rail" oneway="1"/>
    <type id="railway.rail" priority="15" numLanes="1" speed="83.33" allow="rail rail_electric" oneway="1"/>
    <type id="railway.subway" priority="15" numLanes="1" speed="27.78" allow="rail_urban" oneway="1"/>
    <type id="railway.tram" priority="15" numLanes="1" speed="13.89" allow="tram" oneway="1"/>

    <edge id=":1004410321_0" function="internal">
        <lane id=":1004410321_0_0" index="0" disallow="tram rail_urban rail rail_electric ship" speed="13.89" length="4.63" shape="7537.68,6242.13 7537.09,6241.19 7536.60,6240.60 7536.00,6240.12 7535.06,6239.54"/>
        <lane id=":1004410321_0_1" index="1" disallow="tram rail_urban rail rail_electric ship" speed="13.89" length="4.63" shape="7537.68,6242.13 7536.74,6236.70"/>
    </edge>
    <edge id=":1004410321_2" function="internal">
        <lane id=":1004410321_2_0" index="0" disallow="tram rail_urban rail rail_electric ship" speed="13.89" length="8.48" shape="7540.55,6240.37 7537.48,6237.99 7535.88,6236.34 7535.77,6235.42 7537.14,6235.24"/>
    </edge>
    <edge id=":1004410321_3" function="internal">
        <lane id=":1004410321_3_0" index="0" disallow="tram rail_urban rail rail_electric ship" speed="13.89" length="4.16" shape="7540.55,6240.37 7539.41,6239.60 7538.42,6239.04 7537.57,6238.68 7536.86,6238.52"/>
    </edge>
    <edge id=":1004410321_4" function="internal">
        <lane id=":1004410321_4_0" index="0" disallow="tram rail_urban rail rail_electric ship" speed="13.89" length="2.47" shape="7540.09,6231.02 7537.69,6228.66"/>
        <lane id=":1004410321_4_1" index="1" disallow="tram rail_urban rail rail_electric ship" speed="13.89" length="2.47" shape="7538.41,6233.86 7537.41,6231.95"/>
        <lane id=":1004410321_4_2" index="2" disallow="tram rail_urban rail rail_electric ship" speed="13.89" length="2.47" shape="7538.41,6233.86 7537.14,6235.24"/>
    </edge>
    <edge id=":1161789523_0" function="internal">
        <lane id=":1161789523_0_0" index="0" disallow="tram rail_urban rail rail_electric ship" speed="13.89" length="7.75" shape="7619.64,6273.13 7621.02,6273.61 7622.73,6273.67 7624.77,6273.29 7627.14,6272.48"/>
    </edge>
    <edge id=":1161789523_1" function="internal">
        <lane id=":1161789523_1_0" index="0" disallow="tram rail_urban rail rail_electric ship" speed="13.89" length="8.06" shape="7619.64,6273.13 7626.65,6276.75"/>
        <lane id=":1161789523_1_1" index="1" disallow="tram rail_urban rail rail_electric ship" speed="13.89" length="8.06" shape="7617.99,6275.98 7625.09,6279.66"/>
        <lane id=":1161789523_1_2" index="2" disallow="tram rail_urban rail rail_electric ship" speed="13.89" length="8.06" shape="7616.33,6278.83 7623.53,6282.57"/>
        <lane id=":1161789523_1_3" index="3" disallow="tram rail_urban rail rail_electric ship" speed="13.89" length="8.06" shape="7614.67,6281.69 7621.98,6285.48"/>
    </edge>
    <edge id=":1161789529_0" function="internal">
        <lane id=":1161789529_0_0" index="0" disallow="tram rail_urban rail rail_electric ship" speed="13.89" length="7.50" shape="7643.28,6265.54 7642.15,6258.20"/>
        <lane id=":1161789529_0_1" index="1" disallow="tram rail_urban rail rail_electric ship" speed="13.89" length="7.50" shape="7646.54,6265.01 7645.38,6257.53"/>
    </edge>
    <edge id=":1161789529_2" function="internal">
        <lane id=":1161789529_2_0" index="0" disallow="tram rail_urban rail rail_electric ship" speed="13.89" length="8.30" shape="7651.84,6256.19 7652.81,6258.48 7654.14,6259.78 7655.44,6261.09 7656.31,6263.40"/>
        <lane id=":1161789529_2_1" index="1" disallow="tram rail_urban rail rail_electric ship" speed="13.89" length="8.30" shape="7648.61,6256.86 7649.57,6259.11 7650.89,6260.39 7652.19,6261.67 7653.05,6263.94"/>
        <lane id=":1161789529_2_2" index="2" disallow="tram rail_urban rail rail_electric ship" speed="13.89" length="8.30" shape="7648.61,6256.86 7649.79,6264.47"/>
    </edge>
    <edge id=":1161789529_5" function="internal">
        <lane id=":1161789529_5_0" index="0" disallow="tram rail_urban rail rail_electric ship" speed="13.89" length="7.21" shape="7639.26,6264.45 7640.77,6262.89 7641.75,6261.33 7642.21,6259.77 7642.15,6258.20"/>
    </edge>
    <edge id=":1208800142_0" function="internal">
        <lane id=":1208800142_0_0" index="0" disallow="tram rail_urban rail rail_electric ship" speed="13.89" length="0.19" shape="7678.60,6440.02 7678.58,6439.88"/>
        <lane id=":1208800142_0_1" index="1" disallow="tram rail_urban rail rail_electric ship" speed="13.89" length="0.19" shape="7681.87,6439.60 7681.84,6439.38"/>
    </edge>
    <edge id=":1208800142_2" function="internal">
        <lane id=":1208800142_2_0" index="0" disallow="tram rail_urban rail rail_electric ship" speed="13.89" length="0.35" shape="7688.36,6438.38 7688.42,6438.77"/>
        <lane id=":1208800142_2_1" index="1" disallow="tram rail_urban rail rail_electric ship" speed="13.89" length="0.35" shape="7685.10,6438.88 7685.14,6439.18"/>
    </edge>
    <edge id=":1208800162_0" function="internal">
        <lane id=":1208800162_0_0" index="0" disallow="tram rail_urban rail rail_electric ship" speed="12.50" length="5.38" shape="7681.12,6459.80 7680.74,6458.52 7679.96,6457.63 7678.78,6457.12 7677.21,6456.99"/>
    </edge>
    <edge id=":1208800162_1" function="internal">
        <lane id=":1208800162_1_0" index="0" disallow="tram rail_urban rail rail_electric ship" speed="13.89" length="9.18" shape="7684.39,6459.39 7683.24,6450.28"/>
    </edge>
    <edge id=":1208800162_2" function="internal">
        <lane id=":1208800162_2_0" index="0" disallow="tram rail_urban rail rail_electric ship" speed="13.89" length="9.19" shape="7689.78,6449.44 7690.94,6458.57"/>
        <lane id=":1208800162_2_1" index="1" disallow="tram rail_urban rail rail_electric ship" speed="13.89" length="9.19" shape="7686.51,6449.86 7687.67,6458.98"/>
    </edge>
    <edge id=":1208800162_4" function="internal">
        <lane id=":1208800162_4_0" index="0" disallow="tram rail_urban rail rail_electric ship" speed="12.50" length="4.52" shape="7686.51,6449.86 7686.25,6452.84 7685.33,6454.07"/>
    </edge>
    <edge id=":1208800162_7" function="internal">
        <lane id=":1208800162_7_0" index="0" speed="12.50" length="8.94" shape="7685.33,6454.07 7684.62,6455.02 7681.60,6456.40 7677.21,6456.99"/>
    </edge>
    <edge id=":1208800162_5" function="internal">
        <lane id=":1208800162_5_0" index="0" disallow="tram rail_urban rail rail_electric ship" speed="12.50" length="4.83" shape="7677.08,6453.69 7678.48,6453.46 7679.43,6452.88 7679.92,6451.97 7679.96,6450.70"/>
    </edge>
    <edge id=":1208800162_6" function="internal">
        <lane id=":1208800162_6_0" index="0" disallow="tram rail_urban rail rail_electric ship" speed="12.50" length="13.03" shape="7677.08,6453.69 7681.45,6453.89 7684.67,6454.83 7686.74,6456.53 7687.67,6458.98"/>
    </edge>
    <edge id=":1208800164_0" function="internal">
        <lane id=":1208800164_0_0" index="0" disallow="tram rail_urban rail rail_electric ship" speed="12.50" length="5.26" shape="7679.92,6450.35 7679.54,6449.24 7678.74,6448.45 7677.52,6447.98 7675.87,6447.83"/>
    </edge>
    <edge id=":1208800164_1" function="internal">
        <lane id=":1208800164_1_0" index="0" disallow="tram rail_urban rail rail_electric ship" speed="13.89" length="9.19" shape="7679.92,6450.35 7678.75,6441.23"/>
        <lane id=":1208800164_1_1" index="1" disallow="tram rail_urban rail rail_electric ship" speed="13.89" length="9.19" shape="7683.19,6449.93 7682.02,6440.81"/>
    </edge>
    <edge id=":1208800164_3" function="internal">
        <lane id=":1208800164_3_0" index="0" disallow="tram rail_urban rail rail_electric ship" speed="13.89" length="9.19" shape="7688.57,6439.98 7689.74,6449.09"/>
        <lane id=":1208800164_3_1" index="1" disallow="tram rail_urban rail rail_electric ship" speed="13.89" length="9.19" shape="7685.30,6440.39 7686.46,6449.51"/>
    </edge>
    <edge id=":1208800164_5" function="internal">
        <lane id=":1208800164_5_0" index="0" disallow="tram rail_urban rail rail_electric ship" speed="12.50" length="4.80" shape="7685.30,6440.39 7685.06,6443.63 7684.16,6444.90"/>
    </edge>
    <edge id=":1208800164_7" function="internal">
        <lane id=":1208800164_7_0" index="0" speed="12.50" length="9.16" shape="7684.16,6444.90 7683.41,6445.95 7680.35,6447.35 7675.87,6447.83"/>
    </edge>
    <edge id=":1208800164_6" function="internal">
        <lane id=":1208800164_6_0" index="0" disallow="tram rail_urban rail rail_electric ship" speed="12.50" length="5.15" shape="7675.86,6444.53 7677.28,6444.32 7678.24,6443.70 7678.73,6442.67 7678.75,6441.23"/>
    </edge>
    <edge id=":1260604741_0" function="internal">
        <lane id=":1260604741_0_0" index="0" disallow="tram rail_urban rail rail_electric ship" speed="12.50" length="5.26" shape="8297.73,7268.04 8296.25,7267.70 8295.02,7267.84 8294.04,7268.48 8293.31,7269.60"/>
    </edge>
    <edge id=":1260604741_1" function="internal">
        <lane id=":1260604741_1_0" index="0" disallow="tram rail_urban rail rail_electric ship" speed="12.50" length="10.62" shape="8297.73,7268.04 8295.14,7266.65 8293.68,7264.78 8293.33,7262.43 8294.11,7259.60"/>
    </edge>
    <edge id=":1260604741_2" function="internal">
        <lane id=":1260604741_2_0" index="0" disallow="tram rail_urban rail rail_electric ship" speed="12.50" length="5.07" shape="8297.13,7260.91 8296.76,7262.26 8296.93,7263.38 8297.63,7264.28 8298.86,7264.94"/>
    </edge>
    <edge id=":1260604741_3" function="internal">
        <lane id=":1260604741_3_0" index="0" disallow="tram rail_urban rail rail_electric ship" speed="13.89" length="9.50" shape="8297.13,7260.91 8293.31,7269.60"/>
    </edge>
    <edge id=":1260604741_4" function="internal">
        <lane id=":1260604741_4_0" index="0" disallow="tram rail_urban rail rail_electric ship" speed="13.89" length="9.46" shape="8290.29,7268.25 8294.11,7259.60"/>
    </edge>
    <edge id=":1260604741_5" function="internal">
        <lane id=":1260604741_5_0" index="0" disallow="tram rail_urban rail rail_electric ship" speed="12.50" length="5.04" shape="8290.29,7268.25 8291.76,7265.97 8293.67,7264.65"/>
    </edge>
    <edge id=":1260604741_6" function="internal">
        <lane id=":1260604741_6_0" index="0" speed="12.50" length="5.28" shape="8293.67,7264.65 8296.04,7264.31 8298.86,7264.94"/>
    </edge>
    <edge id=":146546819_0" function="internal">
        <lane id=":146546819_0_0" index="0" disallow="tram rail_urban rail rail_electric ship" speed="8.33" length="5.07" shape="8669.49,6832.23 8668.15,6831.90 8667.03,6832.10 8666.12,6832.81 8665.43,6834.03"/>
    </edge>
    <edge id=":146546819_1" function="internal">
        <lane id=":146546819_1_0" index="0" disallow="tram rail_urban rail rail_electric ship" speed="8.33" length="9.57" shape="8669.49,6832.23 8660.54,6828.84"/>
    </edge>
    <edge id=":146546819_2" function="internal">
        <lane id=":146546819_2_0" index="0" disallow="tram rail_urban rail rail_electric ship" speed="4.86" length="4.41" shape="8669.49,6832.23 8667.10,6830.62 8666.42,6829.25"/>
    </edge>
    <edge id=":146546819_12" function="internal">
        <lane id=":146546819_12_0" index="0" speed="4.86" length="8.66" shape="8666.42,6829.25 8665.89,6828.19 8665.83,6824.94 8666.94,6820.86"/>
    </edge>
    <edge id=":146546819_3" function="internal">
        <lane id=":146546819_3_0" index="0" disallow="tram rail_urban rail rail_electric ship" speed="4.86" length="5.11" shape="8670.03,6822.03 8669.75,6823.36 8669.97,6824.48 8670.71,6825.39 8671.95,6826.10"/>
    </edge>
    <edge id=":146546819_4" function="internal">
        <lane id=":146546819_4_0" index="0" disallow="tram rail_urban rail rail_electric ship" speed="4.86" length="12.86" shape="8670.03,6822.03 8665.43,6834.03"/>
    </edge>
    <edge id=":146546819_5" function="internal">
        <lane id=":146546819_5_0" index="0" disallow="tram rail_urban rail rail_electric ship" speed="4.86" length="13.12" shape="8670.03,6822.03 8668.17,6825.82 8665.96,6828.22 8663.42,6829.23 8660.54,6828.84"/>
    </edge>
    <edge id=":146546819_6" function="internal">
        <lane id=":146546819_6_0" index="0" disallow="tram rail_urban rail rail_electric ship" speed="4.86" length="7.94" shape="8661.65,6825.73 8663.12,6825.83 8664.50,6825.05 8665.77,6823.40 8666.94,6820.86"/>
    </edge>
    <edge id=":146546819_7" function="internal">
        <lane id=":146546819_7_0" index="0" disallow="tram rail_urban rail rail_electric ship" speed="8.33" length="9.70" shape="8661.65,6825.73 8670.72,6829.16"/>
    </edge>
    <edge id=":146546819_8" function="internal">
        <lane id=":146546819_8_0" index="0" disallow="tram rail_urban rail rail_electric ship" speed="8.33" length="5.43" shape="8661.65,6825.73 8664.20,6827.07 8665.68,6828.90 8665.72,6829.09"/>
    </edge>
    <edge id=":146546819_13" function="internal">
        <lane id=":146546819_13_0" index="0" speed="8.33" length="5.06" shape="8665.72,6829.09 8666.10,6831.22 8665.43,6834.03"/>
    </edge>
    <edge id=":146546819_9" function="internal">
        <lane id=":146546819_9_0" index="0" disallow="tram rail_urban rail rail_electric ship" speed="8.33" length="5.04" shape="8662.36,6832.83 8662.68,6831.48 8662.48,6830.36 8661.77,6829.48 8660.54,6828.84"/>
    </edge>
    <edge id=":146546819_10" function="internal">
        <lane id=":146546819_10_0" index="0" disallow="tram rail_urban rail rail_electric ship" speed="4.86" length="12.82" shape="8662.36,6832.83 8666.94,6820.86"/>
    </edge>
    <edge id=":146546819_11" function="internal">
        <lane id=":146546819_11_0" index="0" disallow="tram rail_urban rail rail_electric ship" speed="8.33" length="10.43" shape="8662.36,6832.83 8663.78,6830.32 8665.64,6828.88 8667.96,6828.49 8670.72,6829.16"/>
    </edge>
    <edge id=":146546832_0" function="internal">
        <lane id=":146546832_0_0" index="0" disallow="tram rail_urban rail rail_electric ship" speed="8.33" length="4.82" shape="8585.26,6977.30 8583.90,6977.89 8582.98,6977.78 8582.51,6976.99 8582.50,6975.50"/>
    </edge>
    <edge id=":146546838_0" function="internal">
        <lane id=":146546838_0_0" index="0" disallow="tram rail_urban rail rail_electric ship" speed="1.39" length="0.86" shape="8526.24,7007.70 8526.15,7007.94 8526.06,7008.09 8525.94,7008.22 8525.75,7008.38"/>
    </edge>
    <edge id=":146546842_0" function="internal">
        <lane id=":146546842_0_0" index="0" disallow="tram rail_urban rail rail_electric ship" speed="7.64" length="5.95" shape="8450.09,7061.08 8448.78,7059.77 8447.50,7059.08 8446.23,7059.01 8444.97,7059.56"/>
    </edge>
    <edge id=":146546842_1" function="internal">
        <lane id=":146546842_1_0" index="0" disallow="tram rail_urban rail rail_electric ship" speed="13.89" length="7.22" shape="8450.09,7061.08 8448.74,7059.42 8447.83,7058.26 8446.99,7057.06 8445.84,7055.25"/>
    </edge>
    <edge id=":146546842_2" function="internal">
        <lane id=":146546842_2_0" index="0" disallow="tram rail_urban rail rail_electric ship" speed="7.64" length="5.18" shape="8455.97,7052.61 8454.85,7053.52 8454.35,7054.54 8454.47,7055.68 8455.21,7056.92"/>
    </edge>
    <edge id=":146546842_3" function="internal">
        <lane id=":146546842_3_0" index="0" disallow="tram rail_urban rail rail_electric ship" speed="1.39" length="13.02" shape="8455.97,7052.61 8444.97,7059.56"/>
    </edge>
    <edge id=":146546842_4" function="internal">
        <lane id=":146546842_4_0" index="0" disallow="tram rail_urban rail rail_electric ship" speed="7.64" length="11.11" shape="8455.97,7052.61 8452.13,7054.70 8449.16,7055.84 8447.06,7056.02 8445.84,7055.25"/>
    </edge>
    <edge id=":146546842_5" function="internal">
        <lane id=":146546842_5_0" index="0" disallow="tram rail_urban rail rail_electric ship" speed="13.89" length="6.62" shape="8451.43,7051.75 8452.46,7053.35 8453.20,7054.42 8454.01,7055.45 8455.21,7056.92"/>
        <lane id=":146546842_5_1" index="1" disallow="tram rail_urban rail rail_electric ship" speed="13.89" length="6.62" shape="8448.64,7053.50 8449.73,7055.21 8450.52,7056.34 8451.37,7057.43 8452.65,7059.00"/>
    </edge>
    <edge id=":146546842_7" function="internal">
        <lane id=":146546842_7_0" index="0" disallow="tram rail_urban rail rail_electric ship" speed="7.64" length="2.87" shape="8448.64,7053.50 8448.99,7054.80 8448.49,7056.25"/>
    </edge>
    <edge id=":146546842_8" function="internal">
        <lane id=":146546842_8_0" index="0" speed="7.64" length="4.86" shape="8448.49,7056.25 8447.15,7057.83 8444.97,7059.56"/>
    </edge>
    <edge id=":146549935_0" function="internal">
        <lane id=":146549935_0_0" index="0" disallow="tram rail_urban rail rail_electric ship" speed="1.39" length="6.38" shape="8340.12,7104.94 8333.74,7104.93"/>
    </edge>
    <edge id=":146549935_1" function="internal">
        <lane id=":146549935_1_0" index="0" disallow="tram rail_urban rail rail_electric ship" speed="1.39" length="5.52" shape="8337.50,7101.47 8336.87,7103.00 8336.04,7104.09 8335.00,7104.73 8333.74,7104.93"/>
    </edge>
    <edge id=":146549974_0" function="internal">
        <lane id=":146549974_0_0" index="0" disallow="tram rail_urban rail rail_electric ship" speed="4.86" length="5.02" shape="8209.19,7074.38 8207.82,7074.17 8206.73,7074.45 8205.90,7075.22 8205.34,7076.48"/>
    </edge>
    <edge id=":146549974_1" function="internal">
        <lane id=":146549974_1_0" index="0" disallow="tram rail_urban rail rail_electric ship" speed="4.86" length="7.87" shape="8209.19,7074.38 8206.55,7073.38 8204.79,7072.24 8203.92,7070.96 8203.92,7069.55"/>
    </edge>
    <edge id=":146549974_2" function="internal">
        <lane id=":146549974_2_0" index="0" disallow="tram rail_urban rail rail_electric ship" speed="8.33" length="6.23" shape="8207.08,7070.50 8205.34,7076.48"/>
    </edge>
    <edge id=":146549974_3" function="internal">
        <lane id=":146549974_3_0" index="0" disallow="tram rail_urban rail rail_electric ship" speed="8.33" length="6.29" shape="8202.16,7075.59 8203.92,7069.55"/>
    </edge>
    <edge id=":146549996_0" function="internal">
        <lane id=":146549996_0_0" index="0" disallow="tram rail_urban rail rail_electric ship" speed="11.11" length="0.16" shape="8202.04,7088.21 8201.99,7088.37"/>
    </edge>
    <edge id=":146549996_1" function="internal">
        <lane id=":146549996_1_0" index="0" disallow="tram rail_urban rail rail_electric ship" speed="11.11" length="1.80" shape="8198.36,7089.05 8198.86,7087.32"/>
    </edge>
    <edge id=":146554198_0" function="internal">
        <lane id=":146554198_0_0" index="0" disallow="tram rail_urban rail rail_electric ship" speed="4.86" length="6.08" shape="8735.38,6646.67 8735.47,6648.17 8734.61,6649.11 8733.44,6650.07 8732.61,6651.65"/>
    </edge>
    <edge id=":1474685781_0" function="internal">
        <lane id=":1474685781_0_0" index="0" disallow="tram rail_urban rail rail_electric ship" speed="12.50" length="6.18" shape="7696.29,6422.14 7696.76,6424.08 7697.56,6425.32 7698.68,6425.88 7700.13,6425.75"/>
    </edge>
    <edge id=":1474685781_1" function="internal">
        <lane id=":1474685781_1_0" index="0" disallow="tram rail_urban rail rail_electric ship" speed="12.50" length="7.56" shape="7696.29,6422.14 7696.50,6424.89 7696.29,6426.95 7695.66,6428.30 7694.61,6428.96"/>
    </edge>
    <edge id=":1474685781_2" function="internal">
        <lane id=":1474685781_2_0" index="0" disallow="tram rail_urban rail rail_electric ship" speed="13.89" length="6.38" shape="7693.83,6425.75 7695.68,6425.56 7696.99,6425.81 7698.30,6426.02 7700.13,6425.75"/>
    </edge>
    <edge id=":1549361023_0" function="internal">
        <lane id=":1549361023_0_0" index="0" disallow="tram rail_urban rail rail_electric ship" speed="13.89" length="5.72" shape="8496.81,6278.42 8495.05,6278.20 8493.66,6278.43 8492.62,6279.10 8491.96,6280.22"/>
    </edge>
    <edge id=":1549361023_1" function="internal">
        <lane id=":1549361023_1_0" index="0" disallow="tram rail_urban rail rail_electric ship" speed="13.89" length="16.69" shape="8497.54,6275.20 8481.32,6271.26"/>
    </edge>
    <edge id=":1549361023_2" function="internal">
        <lane id=":1549361023_2_0" index="0" disallow="tram rail_urban rail rail_electric ship" speed="13.89" length="5.06" shape="8497.54,6275.20 8493.45,6273.85 8492.84,6273.42"/>
    </edge>
    <edge id=":1549361023_13" function="internal">
        <lane id=":1549361023_13_0" index="0" speed="13.89" length="8.20" shape="8492.84,6273.42 8490.77,6271.97 8489.48,6269.56 8489.59,6266.62"/>
    </edge>
    <edge id=":1549361023_3" function="internal">
        <lane id=":1549361023_3_0" index="0" disallow="tram rail_urban rail rail_electric ship" speed="13.89" length="5.03" shape="8495.98,6268.24 8495.84,6269.62 8496.17,6270.70 8496.98,6271.49 8498.28,6271.98"/>
    </edge>
    <edge id=":1549361023_4" function="internal">
        <lane id=":1549361023_4_0" index="0" disallow="tram rail_urban rail rail_electric ship" speed="13.89" length="12.43" shape="8495.98,6268.24 8495.00,6271.86 8494.19,6274.30 8493.27,6276.70 8491.96,6280.22"/>
        <lane id=":1549361023_4_1" index="1" disallow="tram rail_urban rail rail_electric ship" speed="13.89" length="12.43" shape="8492.79,6267.43 8491.84,6270.93 8491.05,6273.28 8490.16,6275.60 8488.89,6279.00"/>
    </edge>
    <edge id=":1549361023_6" function="internal">
        <lane id=":1549361023_6_0" index="0" disallow="tram rail_urban rail rail_electric ship" speed="13.89" length="13.61" shape="8492.79,6267.43 8491.46,6270.06 8489.11,6271.57 8485.73,6271.97 8481.32,6271.26"/>
    </edge>
    <edge id=":1549361023_7" function="internal">
        <lane id=":1549361023_7_0" index="0" disallow="tram rail_urban rail rail_electric ship" speed="13.89" length="8.35" shape="8482.15,6268.06 8485.10,6268.61 8487.33,6268.56 8488.82,6267.90 8489.59,6266.62"/>
    </edge>
    <edge id=":1549361023_8" function="internal">
        <lane id=":1549361023_8_0" index="0" disallow="tram rail_urban rail rail_electric ship" speed="13.89" length="16.60" shape="8482.15,6268.06 8498.28,6271.98"/>
    </edge>
    <edge id=":1549361023_9" function="internal">
        <lane id=":1549361023_9_0" index="0" disallow="tram rail_urban rail rail_electric ship" speed="13.89" length="9.52" shape="8482.15,6268.06 8486.24,6269.69 8488.72,6272.06 8489.18,6273.68"/>
    </edge>
    <edge id=":1549361023_14" function="internal">
        <lane id=":1549361023_14_0" index="0" speed="13.89" length="5.44" shape="8489.18,6273.68 8489.61,6275.16 8488.89,6279.00"/>
    </edge>
    <edge id=":1549361023_10" function="internal">
        <lane id=":1549361023_10_0" index="0" disallow="tram rail_urban rail rail_electric ship" speed="13.89" length="6.30" shape="8482.76,6276.55 8483.28,6274.53 8483.21,6272.98 8482.56,6271.88 8481.32,6271.26"/>
    </edge>
    <edge id=":1549361023_11" function="internal">
        <lane id=":1549361023_11_0" index="0" disallow="tram rail_urban rail rail_electric ship" speed="13.89" length="12.20" shape="8482.76,6276.55 8484.51,6273.29 8486.48,6271.28 8488.29,6269.42 8489.59,6266.62"/>
    </edge>
    <edge id=":1549361023_12" function="internal">
        <lane id=":1549361023_12_0" index="0" disallow="tram rail_urban rail rail_electric ship" speed="13.89" length="15.25" shape="8485.82,6277.78 8487.68,6274.43 8490.37,6272.34 8493.90,6271.53 8498.28,6271.98"/>
    </edge>
    <edge id=":16809569_0" function="internal">
        <lane id=":16809569_0_0" index="0" disallow="tram rail_urban rail rail_electric ship" speed="13.89" length="15.36" shape="8724.56,6854.98 8718.42,6855.03 8713.89,6855.41 8710.96,6856.10 8709.63,6857.10"/>
    </edge>
    <edge id=":16809569_1" function="internal">
        <lane id=":16809569_1_0" index="0" disallow="tram rail_urban rail rail_electric ship" speed="11.11" length="25.05" shape="8724.61,6851.68 8716.32,6850.71 8709.83,6848.64 8704.78,6846.32 8700.79,6844.62"/>
    </edge>
    <edge id=":16809569_2" function="internal">
        <lane id=":16809569_2_0" index="0" disallow="tram rail_urban rail rail_electric ship" speed="13.89" length="10.06" shape="8724.66,6848.38 8718.61,6847.46 8715.46,6845.08"/>
    </edge>