<additional>
    <poly id="100500144" type="landuse" color="194,194,130" fill="1" layer="-3.00" shape="7657.34,6262.56 7685.99,6278.33 7692.98,6266.23 7721.23,6262.69 7717.20,6236.02 7720.87,6215.19 7718.45,6210.65 7660.86,6197.75 7652.85,6243.13 7657.34,6262.56"/>
    <poly id="101419981" type="building" color="255,230,230" fill="1" layer="-1.00" shape="8261.47,7226.32 8276.46,7232.82 8277.53,7230.37 8288.44,7235.13 8276.50,7262.38 8284.48,7265.86 8276.50,7284.06 8269.10,7280.84 8264.81,7278.95 8257.36,7275.72 8260.61,7268.31 8245.79,7261.85 8261.47,7226.32"/>
    <poly id="103594486" type="water" color="181,209,209" fill="0" layer="-4.00" shape="8015.84,6964.16 8005.53,6955.85"/>
    <poly id="103594487" type="water" color="181,209,209" fill="0" layer="-4.00" shape="8013.62,6981.26 8006.50,6976.12"/>
    <poly id="104799454" type="parking" color="184,184,179" fill="1" layer="-1.00" shape="7665.97,6440.00 7669.14,6461.31 7621.60,6461.78 7621.25,6439.78 7665.97,6440.00"/>
    <poly id="105884386" type="farm" color="242,242,204" fill="1" layer="-3.00" shape="8755.32,6865.71 8781.08,6877.50 8796.19,6845.96 8759.97,6857.49 8755.32,6865.71"/>
    <poly id="111397989" type="building" color="255,230,230" fill="1" layer="-1.00" shape="8764.97,6341.25 8764.68,6341.38 8762.71,6336.86 8763.06,6336.71 8761.53,6333.07 8771.09,6329.03 8776.41,6341.55 8766.81,6345.61 8764.97,6341.25"/>
    <poly id="115668752" type="building" color="255,230,230" fill="1" layer="-1.00" shape="7825.95,6459.19 7800.47,6444.69 7799.19,6443.96 7799.08,6444.17 7798.81,6444.03 7800.55,6441.01 7786.91,6433.30 7788.96,6428.65 7788.36,6428.44 7788.82,6427.22 7789.11,6427.31 7792.34,6419.11 7792.95,6419.36 7795.66,6412.61 7794.87,6412.28 7795.87,6410.09 7796.57,6410.37 7796.96,6409.42 7801.80,6412.16 7807.56,6415.46 7813.07,6418.59 7818.57,6408.74 7820.35,6405.54 7822.97,6406.96 7826.02,6401.12 7830.94,6391.79 7857.36,6404.61 7825.95,6459.19"/>
    <poly id="115668752#1" type="shop" color="237,199,255" fill="1" layer="-1.00" shape="7825.95,6459.19 7800.47,6444.69 7799.19,6443.96 7799.08,6444.17 7798.81,6444.03 7800.55,6441.01 7786.91,6433.30 7788.96,6428.65 7788.36,6428.44 7788.82,6427.22 7789.11,6427.31 7792.34,6419.11 7792.95,6419.36 7795.66,6412.61 7794.87,6412.28 7795.87,6410.09 7796.57,6410.37 7796.96,6409.42 7801.80,6412.16 7807.56,6415.46 7813.07,6418.59 7818.57,6408.74 7820.35,6405.54 7822.97,6406.96 7826.02,6401.12 7830.94,6391.79 7857.36,6404.61 7825.95,6459.19"/>
    <poly id="115668756" type="building" color="255,230,230" fill="1" layer="-1.00" shape="8416.96,6452.61 8399.51,6445.66 8402.94,6436.14 8404.10,6432.93 8404.83,6433.21 8411.12,6411.45 8406.28,6410.01 8409.47,6399.71 8374.38,6389.27 8374.65,6388.27 8368.85,6386.89 8368.00,6386.67 8371.37,6372.85 8372.55,6368.01 8376.97,6349.87 8383.67,6351.80 8384.43,6351.97 8384.89,6350.39 8385.57,6350.57 8385.67,6350.24 8409.33,6356.84 8452.23,6369.35 8453.74,6369.76 8460.74,6371.91 8467.01,6373.85 8503.44,6385.29 8503.12,6386.51 8503.29,6386.56 8496.54,6410.01 8494.15,6414.56 8484.53,6432.80 8483.08,6432.35 8480.13,6438.24 8472.75,6434.39 8468.15,6431.98 8461.51,6444.67 8460.15,6443.89 8458.89,6444.42 8454.59,6453.16 8447.56,6450.24 8442.29,6462.68 8424.84,6455.75 8422.55,6456.24 8420.25,6455.81 8418.29,6454.53 8416.96,6452.61"/>
    <poly id="115668756#1" type="building" color="255,230,230" fill="1" layer="-1.00" shape="8416.96,6452.61 8399.51,6445.66 8402.94,6436.14 8404.10,6432.93 8404.83,6433.21 8411.12,6411.45 8406.28,6410.01 8409.47,6399.71 8374.38,6389.27 8374.65,6388.27 8368.85,6386.89 8368.00,6386.67 8371.37,6372.85 8372.55,6368.01 8376.97,6349.87 8383.67,6351.80 8384.43,6351.97 8384.89,6350.39 8385.57,6350.57 8385.67,6350.24 8409.33,6356.84 8452.23,6369.35 8453.74,6369.76 8460.74,6371.91 8467.01,6373.85 8503.44,6385.29 8503.12,6386.51 8503.29,6386.56 8496.54,6410.01 8494.15,6414.56 8484.53,6432.80 8483.08,6432.35 8480.13,6438.24 8472.75,6434.39 8468.15,6431.98 8461.51,6444.67 8460.15,6443.89 8458.89,6444.42 8454.59,6453.16 8447.56,6450.24 8442.29,6462.68 8424.84,6455.75 8422.55,6456.24 8420.25,6455.81 8418.29,6454.53 8416.96,6452.61"/>
    <poly id="115668756#2" type="shop" color="237,199,255" fill="1" layer="-1.00" shape="8416.96,6452.61 8399.51,6445.66 8402.94,6436.14 8404.10,6432.93 8404.83,6433.21 8411.12,6411.45 8406.28,6410.01 8409.47,6399.71 8374.38,6389.27 8374.65,6388.27 8368.85,6386.89 8368.00,6386.67 8371.37,6372.85 8372.55,6368.01 8376.97,6349.87 8383.67,6351.80 8384.43,6351.97 8384.89,6350.39 8385.57,6350.57 8385.67,6350.24 8409.33,6356.84 8452.23,6369.35 8453.74,6369.76 8460.74,6371.91 8467.01,6373.85 8503.44,6385.29 8503.12,6386.51 8503.29,6386.56 8496.54,6410.01 8494.15,6414.56 8484.53,6432.80 8483.08,6432.35 8480.13,6438.24 8472.75,6434.39 8468.15,6431.98 8461.51,6444.67 8460.15,6443.89 8458.89,6444.42 8454.59,6453.16 8447.56,6450.24 8442.29,6462.68 8424.84,6455.75 8422.55,6456.24 8420.25,6455.81 8418.29,6454.53 8416.96,6452.61"/>
    <poly id="124489869" type="amenity" color="237,199,199" fill="1" layer="-1.00" shape="8496.06,6754.28 8477.20,6792.58 8464.53,6786.08 8483.99,6746.26 8480.54,6743.88 8477.64,6742.14 8484.44,6731.75 8522.34,6757.13 8515.50,6767.29 8496.06,6754.28"/>
    <poly id="124489869#1" type="building" color="255,230,230" fill="1" layer="-1.00" shape="8496.06,6754.28 8477.20,6792.58 8464.53,6786.08 8483.99,6746.26 8480.54,6743.88 8477.64,6742.14 8484.44,6731.75 8522.34,6757.13 8515.50,6767.29 8496.06,6754.28"/>
    <poly id="127353679" type="water" color="181,209,209" fill="0" layer="-4.00" shape="8112.15,6986.43 8109.09,6985.56"/>
    <poly id="129357827" type="building" color="255,230,230" fill="0" layer="-1.00" shape="7900.20,7109.52 7897.20,7103.48"/>
    <poly id="135861477" type="amenity" color="237,199,199" fill="1" layer="-1.00" shape="8351.62,6415.87 8356.72,6396.43 8357.85,6396.70 8352.74,6416.13 8351.62,6415.87"/>
    <poly id="161457116" type="building" color="255,230,230" fill="1" layer="-1.00" shape="8222.07,7223.90 8204.13,7264.75 8198.16,7278.27 8179.65,7270.15 8189.93,7246.85 8173.68,7239.71 8181.01,7223.10 8192.68,7228.22 8199.24,7213.35 8222.07,7223.90"/>
    <poly id="169963861" type="amenity" color="237,199,199" fill="1" layer="-1.00" shape="8719.75,6949.68 8709.20,6942.49 8707.23,6943.10 8702.09,6950.71 8686.67,6940.28 8694.66,6928.46 8705.77,6935.96 8709.06,6935.23 8716.18,6924.73 8715.45,6924.23 8718.97,6919.03 8718.31,6918.59 8719.26,6917.19 8720.19,6915.82 8720.85,6916.26 8724.36,6911.08 8725.08,6911.56 8732.18,6901.05 8731.90,6899.53 8731.62,6898.01 8720.39,6890.39 8728.46,6878.51 8743.83,6888.92 8738.70,6896.48 8738.87,6898.49 8749.53,6905.74 8745.88,6911.06 8745.73,6910.95 8740.90,6918.09 8741.87,6918.76 8739.28,6922.58 8738.98,6922.38 8731.41,6933.57 8731.70,6933.77 8729.10,6937.62 8728.13,6936.95 8723.25,6944.17 8723.43,6944.29 8719.75,6949.68"/>
    <poly id="169963861#1" type="building" color="255,230,230" fill="1" layer="-1.00" shape="8719.75,6949.68 8709.20,6942.49 8707.23,6943.10 8702.09,6950.71 8686.67,6940.28 8694.66,6928.46 8705.77,6935.96 8709.06,6935.23 8716.18,6924.73 8715.45,6924.23 8718.97,6919.03 8718.31,6918.59 8719.26,6917.19 8720.19,6915.82 8720.85,6916.26 8724.36,6911.08 8725.08,6911.56 8732.18,6901.05 8731.90,6899.53 8731.62,6898.01 8720.39,6890.39 8728.46,6878.51 8743.83,6888.92 8738.70,6896.48 8738.87,6898.49 8749.53,6905.74 8745.88,6911.06 8745.73,6910.95 8740.90,6918.09 8741.87,6918.76 8739.28,6922.58 8738.98,6922.38 8731.41,6933.57 8731.70,6933.77 8729.10,6937.62 8728.13,6936.95 8723.25,6944.17 8723.43,6944.29 8719.75,6949.68"/>
    <poly id="169963862" type="amenity" color="237,199,199" fill="1" layer="-1.00" shape="8745.94,6991.45 8749.32,6983.80 8742.16,6980.64 8738.80,6988.28 8715.11,6977.83 8725.50,6954.28 8741.02,6961.13 8747.76,6945.87 8771.19,6956.22 8764.45,6971.47 8779.99,6978.34 8769.57,7001.90 8745.94,6991.45"/>
    <poly id="169963862#1" type="building" color="255,230,230" fill="1" layer="-1.00" shape="8745.94,6991.45 8749.32,6983.80 8742.16,6980.64 8738.80,6988.28 8715.11,6977.83 8725.50,6954.28 8741.02,6961.13 8747.76,6945.87 8771.19,6956.22 8764.45,6971.47 8779.99,6978.34 8769.57,7001.90 8745.94,6991.45"/>
    <poly id="169963863" type="amenity" color="237,199,199" fill="1" layer="-1.00" shape="8814.47,6946.34 8808.85,6949.09 8808.64,6948.72 8809.77,6948.16 8806.14,6940.79 8794.83,6933.21 8805.76,6916.88 8819.48,6926.06 8820.24,6924.92 8824.22,6927.57 8823.45,6928.71 8844.03,6942.48 8839.74,6948.88 8839.94,6949.05 8840.59,6949.96 8840.76,6950.95 8840.42,6951.92 8839.67,6952.59 8838.69,6952.79 8837.65,6952.46 8837.40,6952.40 8833.11,6958.82 8814.47,6946.34"/>
    <poly id="169963863#1" type="building" color="255,230,230" fill="1" layer="-1.00" shape="8814.47,6946.34 8808.85,6949.09 8808.64,6948.72 8809.77,6948.16 8806.14,6940.79 8794.83,6933.21 8805.76,6916.88 8819.48,6926.06 8820.24,6924.92 8824.22,6927.57 8823.45,6928.71 8844.03,6942.48 8839.74,6948.88 8839.94,6949.05 8840.59,6949.96 8840.76,6950.95 8840.42,6951.92 8839.67,6952.59 8838.69,6952.79 8837.65,6952.46 8837.40,6952.40 8833.11,6958.82 8814.47,6946.34"/>
    <poly id="169963864" type="amenity" color="237,199,199" fill="1" layer="-1.00" shape="8674.02,6960.08 8668.29,6956.39 8659.64,6950.81 8669.83,6934.81 8684.27,6944.12 8674.02,6960.08"/>
    <poly id="169963864#1" type="building" color="255,230,230" fill="1" layer="-1.00" shape="8674.02,6960.08 8668.29,6956.39 8659.64,6950.81 8669.83,6934.81 8684.27,6944.12 8674.02,6960.08"/>
    <poly id="169963865" type="amenity" color="237,199,199" fill="1" layer="-1.00" shape="8779.56,6929.77 8783.02,6926.42 8786.23,6921.58 8787.55,6917.46 8788.04,6911.38 8787.66,6908.52 8786.87,6905.38 8784.56,6901.89 8781.92,6899.78 8778.94,6899.32 8776.13,6899.47 8773.34,6900.25 8770.52,6901.95 8767.19,6905.23 8764.49,6909.22 8762.18,6914.61 8761.21,6917.91 8761.28,6921.11 8761.65,6924.26 8762.77,6926.84 8764.74,6929.50 8767.47,6931.39 8770.57,6932.27 8773.87,6932.26 8776.80,6931.34 8779.56,6929.77"/>
    <poly id="169963865#1" type="building" color="255,230,230" fill="1" layer="-1.00" shape="8779.56,6929.77 8783.02,6926.42 8786.23,6921.58 8787.55,6917.46 8788.04,6911.38 8787.66,6908.52 8786.87,6905.38 8784.56,6901.89 8781.92,6899.78 8778.94,6899.32 8776.13,6899.47 8773.34,6900.25 8770.52,6901.95 8767.19,6905.23 8764.49,6909.22 8762.18,6914.61 8761.21,6917.91 8761.28,6921.11 8761.65,6924.26 8762.77,6926.84 8764.74,6929.50 8767.47,6931.39 8770.57,6932.27 8773.87,6932.26 8776.80,6931.34 8779.56,6929.77"/>
    <poly id="169963866" type="amenity" color="237,199,199" fill="1" layer="-1.00" shape="8782.93,6997.37 8782.97,6997.25 8778.59,6995.34 8791.64,6965.71 8796.01,6967.65 8800.48,6957.44 8842.25,6975.79 8824.66,7015.66 8782.93,6997.37"/>
    <poly id="169963866#1" type="building" color="255,230,230" fill="1" layer="-1.00" shape="8782.93,6997.37 8782.97,6997.25 8778.59,6995.34 8791.64,6965.71 8796.01,6967.65 8800.48,6957.44 8842.25,6975.79 8824.66,7015.66 8782.93,6997.37"/>
    <poly id="169963867" type="building" color="255,230,230" fill="1" layer="-1.00" shape="8816.49,6887.49 8816.33,6887.78 8815.91,6887.56 8816.06,6887.27 8811.10,6884.76 8810.94,6885.04 8810.52,6884.84 8810.67,6884.54 8800.05,6879.17 8807.31,6864.89 8812.64,6867.60 8817.70,6866.93 8822.58,6868.29 8826.55,6871.45 8829.03,6875.91 8834.35,6878.61 8827.10,6892.86 8816.49,6887.49"/>
    <poly id="169963868" type="building" color="255,230,230" fill="1" layer="-1.00" shape="8823.44,6856.60 8822.61,6854.79 8811.71,6858.51 8810.79,6858.05 8813.33,6853.05 8808.98,6850.83 8809.90,6848.93 8837.87,6839.68 8885.20,6829.44 8887.83,6837.11 8873.65,6843.11 8873.05,6841.19 8861.12,6846.42 8860.51,6844.52 8850.87,6848.69 8850.23,6846.77 8841.57,6850.71 8840.94,6848.78 8838.70,6850.07 8832.47,6853.61 8831.62,6851.78 8823.44,6856.60"/>
    <poly id="169963870" type="building" color="255,230,230" fill="1" layer="-1.00" shape="8835.38,6900.96 8825.55,6895.92 8827.10,6892.86 8834.35,6878.61 8842.65,6862.37 8838.70,6850.07 8840.94,6848.78 8841.57,6850.71 8845.93,6864.06 8852.49,6867.41 8838.68,6894.51 8836.92,6897.95 8835.38,6900.96"/>
    <poly id="170072112" type="building" color="255,230,230" fill="1" layer="-1.00" shape="8402.76,6297.44 8403.87,6293.56 8403.73,6293.49 8405.47,6287.32 8405.62,6287.39 8407.41,6281.10 8431.65,6287.95 8428.81,6298.09 8428.57,6298.03 8423.94,6298.44 8423.50,6298.32 8422.85,6300.66 8417.43,6301.56 8417.36,6301.75 8412.36,6300.32 8412.41,6300.13 8402.76,6297.44"/>
    <poly id="171013373" type="amenity" color="237,199,199" fill="1" layer="-1.00" shape="8276.50,7284.06 8269.10,7280.84 8264.81,7278.95 8257.36,7275.72 8260.61,7268.31 8245.79,7261.85 8237.29,7281.11 8218.67,7272.94 8219.33,7271.43 8204.13,7264.75 8198.16,7278.27 8179.65,7270.15 8189.93,7246.85 8173.68,7239.71 8181.01,7223.10 8192.68,7228.22 8199.24,7213.35 8222.07,7223.90 8232.56,7227.98 8237.86,7215.96 8261.47,7226.32 8276.46,7232.82 8277.53,7230.37 8288.44,7235.13 8276.50,7262.38 8284.48,7265.86 8276.50,7284.06"/>
    <poly id="172026492" type="parking" color="184,184,179" fill="1" layer="-1.00" shape="8288.10,6243.57 8284.99,6255.94 8290.85,6257.87 8286.67,6270.29 8282.10,6269.43 8274.49,6266.47 8267.39,6271.74 8230.75,6265.73 8188.59,6260.41 8189.18,6245.35 8191.51,6230.09 8241.90,6234.54 8288.10,6243.57"/>
    <poly id="174031029" type="parking" color="184,184,179" fill="1" layer="-1.00" shape="8178.16,6256.84 8073.61,6254.61 8067.08,6254.64 8066.27,6233.45 8085.35,6231.71 8085.47,6223.11 8118.85,6222.21 8178.88,6225.40 8178.16,6256.84"/>
    <poly id="174031030" type="parking" color="184,184,179" fill="1" layer="-1.00" shape="8032.94,6223.80 8033.39,6252.56 7922.24,6244.07 7903.93,6243.83 7901.71,6236.06 7904.65,6234.49 7920.93,6234.14 7920.64,6228.27 8032.94,6223.80"/>
    <poly id="176307235" type="building" color="255,230,230" fill="1" layer="-1.00" shape="7790.07,6864.39 7787.00,6865.84 7784.49,6867.01 7784.00,6867.22 7775.91,6860.84 7783.60,6857.37 7781.12,6852.14 7783.85,6850.88 7781.84,6846.22 7791.07,6842.12 7801.90,6866.66 7793.14,6870.64 7792.88,6870.74 7790.80,6866.06 7790.07,6864.39"/>
    <poly id="176307235#1" type="shop" color="237,199,255" fill="1" layer="-1.00" shape="7790.07,6864.39 7787.00,6865.84 7784.49,6867.01 7784.00,6867.22 7775.91,6860.84 7783.60,6857.37 7781.12,6852.14 7783.85,6850.88 7781.84,6846.22 7791.07,6842.12 7801.90,6866.66 7793.14,6870.64 7792.88,6870.74 7790.80,6866.06 7790.07,6864.39"/>
    <poly id="186005587" type="building" color="255,230,230" fill="1" layer="-1.00" shape="7747.30,6149.73 7750.71,6137.07 7761.46,6139.97 7758.12,6151.96 7747.30,6149.73"/>
    <poly id="186487261" type="amenity" color="237,199,199" fill="1" layer="-1.00" shape="7762.54,6813.64 7761.33,6811.19 7757.73,6812.96 7758.17,6813.85 7754.96,6815.43 7753.13,6813.99 7752.24,6809.24 7755.38,6808.87 7753.16,6804.31 7756.72,6802.57 7755.56,6800.20 7758.82,6798.61 7759.64,6800.38 7767.31,6796.89 7770.06,6802.93 7770.97,6802.51 7772.78,6806.51 7772.03,6806.85 7772.87,6808.68 7762.54,6813.64"/>
    <poly id="186487261#1" type="building" color="255,230,230" fill="1" layer="-1.00" shape="7762.54,6813.64 7761.33,6811.19 7757.73,6812.96 7758.17,6813.85 7754.96,6815.43 7753.13,6813.99 7752.24,6809.24 7755.38,6808.87 7753.16,6804.31 7756.72,6802.57 7755.56,6800.20 7758.82,6798.61 7759.64,6800.38 7767.31,6796.89 7770.06,6802.93 7770.97,6802.51 7772.78,6806.51 7772.03,6806.85 7772.87,6808.68 7762.54,6813.64"/>
    <poly id="186487263" type="parking" color="184,184,179" fill="1" layer="-1.00" shape="7739.71,6810.58 7743.10,6809.06 7747.86,6806.92 7752.59,6817.37 7754.06,6820.60 7745.90,6824.28 7739.71,6810.58"/>
    <poly id="186662269" type="amenity" color="237,199,199" fill="1" layer="-1.00" shape="8271.38,6164.82 8270.10,6164.96 8270.00,6164.06 8271.13,6163.94 8272.77,6160.64 8269.72,6159.13 8269.18,6160.21 8268.44,6159.85 8269.01,6158.69 8265.69,6157.04 8265.15,6158.11 8264.33,6157.71 8264.83,6156.69 8264.24,6156.39 8268.84,6147.27 8269.41,6147.54 8269.75,6146.90 8270.57,6147.33 8270.25,6147.95 8273.38,6149.59 8273.80,6148.78 8274.63,6149.22 8274.17,6150.07 8277.15,6151.65 8278.85,6148.44 8278.47,6147.62 8279.30,6147.23 8279.78,6148.29 8287.44,6152.04 8288.71,6151.60 8290.01,6149.13 8295.92,6152.24 8293.27,6157.29 8289.96,6155.56 8289.33,6156.76 8289.90,6157.38 8289.19,6158.06 8290.19,6161.24 8291.23,6161.24 8291.20,6162.11 8290.20,6162.11 8288.65,6164.82 8289.31,6165.70 8288.67,6166.17 8288.05,6165.44 8284.99,6166.46 8284.95,6167.50 8284.06,6167.47 8284.08,6166.44 8281.52,6165.17 8279.93,6168.37 8280.33,6169.54 8279.46,6169.79 8279.11,6168.55 8271.38,6164.82"/>
    <poly id="186662269#1" type="building" color="255,230,230" fill="1" layer="-1.00" shape="8271.38,6164.82 8270.10,6164.96 8270.00,6164.06 8271.13,6163.94 8272.77,6160.64 8269.72,6159.13 8269.18,6160.21 8268.44,6159.85 8269.01,6158.69 8265.69,6157.04 8265.15,6158.11 8264.33,6157.71 8264.83,6156.69 8264.24,6156.39 8268.84,6147.27 8269.41,6147.54 8269.75,6146.90 8270.57,6147.33 8270.25,6147.95 8273.38,6149.59 8273.80,6148.78 8274.63,6149.22 8274.17,6150.07 8277.15,6151.65 8278.85,6148.44 8278.47,6147.62 8279.30,6147.23 8279.78,6148.29 8287.44,6152.04 8288.71,6151.60 8290.01,6149.13 8295.92,6152.24 8293.27,6157.29 8289.96,6155.56 8289.33,6156.76 8289.90,6157.38 8289.19,6158.06 8290.19,6161.24 8291.23,6161.24 8291.20,6162.11 8290.20,6162.11 8288.65,6164.82 8289.31,6165.70 8288.67,6166.17 8288.05,6165.44 8284.99,6166.46 8284.95,6167.50 8284.06,6167.47 8284.08,6166.44 8281.52,6165.17 8279.93,6168.37 8280.33,6169.54 8279.46,6169.79 8279.11,6168.55 8271.38,6164.82"/>
    <poly id="195211595" type="building" color="255,230,230" fill="1" layer="-1.00" shape="8920.90,6758.77 8922.23,6745.29 8932.02,6748.18 8931.40,6754.20 8930.87,6759.73 8929.38,6759.60 8920.90,6758.77"/>
    <poly id="196343046" type="building" color="255,230,230" fill="1" layer="-1.00" shape="7736.74,7137.31 7735.30,7137.87 7734.07,7134.70 7735.56,7134.10 7734.44,7131.30 7742.87,7128.09 7748.25,7142.22 7747.23,7142.61 7747.77,7144.02 7743.18,7145.76 7742.65,7144.38 7739.89,7145.43 7736.74,7137.31"/>
    <poly id="197059978" type="building" color="255,230,230" fill="1" layer="-1.00" shape="7517.21,6323.82 7517.41,6323.88 7517.36,6324.13 7508.01,6321.84 7508.08,6321.54 7507.95,6321.51 7509.20,6316.18 7508.02,6315.90 7513.73,6291.84 7524.13,6294.49 7524.25,6294.05 7528.28,6294.98 7529.01,6295.16 7527.92,6299.73 7535.83,6301.60 7533.11,6313.12 7520.66,6310.17 7517.21,6323.82"/>
    <poly id="197238708" type="building" color="255,230,230" fill="1" layer="-1.00" shape="7706.72,7049.39 7705.55,7046.42 7704.25,7046.94 7701.64,7040.32 7702.93,7039.81 7702.33,7038.29 7704.21,7037.24 7708.44,7035.74 7709.36,7038.34 7713.19,7036.98 7716.58,7045.78 7706.72,7049.39"/>
    <poly id="197238709" type="building" color="255,230,230" fill="1" layer="-1.00" shape="7698.87,7026.63 7695.13,7016.44 7699.68,7014.79 7699.44,7014.11 7704.27,7012.47 7706.96,7020.46 7708.05,7023.24 7698.87,7026.63"/>
    <poly id="197238711" type="building" color="255,230,230" fill="1" layer="-1.00" shape="7704.21,7037.24 7702.33,7038.29 7701.18,7035.38 7701.96,7035.08 7698.87,7026.63 7708.05,7023.24 7712.18,7034.39 7708.44,7035.74 7704.21,7037.24"/>
    <poly id="19800725" type="parking" color="184,184,179" fill="1" layer="-1.00" shape="7736.47,6574.47 7718.46,6576.18 7701.62,6460.96 7719.51,6448.19 7736.47,6574.47"/>
    <poly id="19851565" type="water" color="181,209,209" fill="1" layer="-4.00" shape="8014.64,7066.18 8015.75,7068.07 8017.50,7070.49 8022.72,7070.03 8029.83,7070.45 8033.92,7071.23 8035.83,7070.43 8039.71,7060.64 8042.27,7060.00 8045.43,7052.85 8032.99,7046.44 8032.27,7048.96 8031.77,7051.71 8030.52,7055.29 8023.14,7061.30 8014.64,7066.18"/>
    <poly id="19851566" type="water" color="181,209,209" fill="0" layer="-4.00" shape="8035.31,7060.81 8015.75,7068.07 7999.94,7073.94 7993.81,7075.32 7985.92,7074.58 7973.92,7070.98 7964.12,7067.91 7943.67,7060.06 7939.52,7058.84"/>
    <poly id="199818076" type="building" color="255,230,230" fill="1" layer="-1.00" shape="7797.78,6187.97 7799.84,6177.02 7806.31,6178.20 7806.56,6176.73 7810.96,6177.53 7809.77,6183.68 7808.55,6189.91 7797.78,6187.97"/>
    <poly id="199818080" type="building" color="255,230,230" fill="1" layer="-1.00" shape="7841.12,6181.87 7841.18,6180.65 7841.56,6173.72 7840.28,6173.66 7840.45,6171.18 7840.60,6171.18 7840.97,6165.78 7839.45,6164.38 7839.71,6158.19 7845.58,6158.10 7845.33,6165.78 7844.68,6173.84 7846.50,6173.95 7846.07,6182.12 7844.08,6182.05 7841.12,6181.87"/>
    <poly id="199818081" type="building" color="255,230,230" fill="1" layer="-1.00" shape="7779.70,6180.23 7778.88,6184.69 7774.23,6183.85 7772.82,6183.69 7772.82,6183.59 7767.48,6182.59 7769.55,6171.82 7780.85,6173.79 7781.10,6172.28 7784.52,6172.87 7782.92,6180.75 7779.70,6180.23"/>
    <poly id="199818084" type="building" color="255,230,230" fill="1" layer="-1.00" shape="7904.23,6184.67 7904.42,6182.21 7897.78,6181.98 7898.14,6172.12 7911.59,6172.58 7911.22,6182.44 7907.06,6182.26 7906.94,6184.75 7905.50,6184.71 7904.23,6184.67"/>
    <poly id="199818086" type="building" color="255,230,230" fill="1" layer="-1.00" shape="7790.27,6186.72 7790.22,6186.96 7787.31,6186.45 7787.35,6186.21 7782.00,6185.28 7782.92,6180.75 7784.18,6174.65 7784.66,6174.73 7797.73,6177.11 7795.60,6187.66 7790.27,6186.72"/>
    <poly id="199818087" type="building" color="255,230,230" fill="1" layer="-1.00" shape="7899.26,6158.43 7899.79,6147.82 7899.86,6146.97 7900.45,6146.96 7912.57,6147.43 7912.09,6158.62 7899.26,6158.43"/>
    <poly id="199818088" type="building" color="255,230,230" fill="1" layer="-1.00" shape="7896.66,6172.05 7896.84,6166.88 7896.96,6166.87 7897.09,6163.56 7899.11,6163.62 7899.26,6158.43 7912.09,6158.62 7912.29,6158.65 7912.25,6159.12 7912.14,6159.14 7911.96,6163.20 7912.12,6163.23 7912.09,6163.80 7911.95,6163.83 7911.84,6167.33 7911.97,6167.38 7911.95,6167.95 7911.77,6167.95 7911.66,6172.08 7911.82,6172.09 7911.79,6172.57 7911.59,6172.58 7898.14,6172.12 7896.66,6172.05"/>
    <poly id="199818089" type="building" color="255,230,230" fill="1" layer="-1.00" shape="7829.18,6191.36 7829.63,6180.28 7841.18,6180.65 7841.12,6181.87 7844.08,6182.05 7843.63,6192.22 7829.18,6191.36"/>
    <poly id="199818090" type="building" color="255,230,230" fill="1" layer="-1.00" shape="7740.75,6177.76 7742.73,6166.73 7753.56,6168.69 7751.57,6179.71 7740.75,6177.76"/>
    <poly id="199818092" type="building" color="255,230,230" fill="1" layer="-1.00" shape="7760.77,6181.37 7760.70,6181.62 7759.45,6181.39 7761.41,6170.14 7769.58,6171.62 7769.55,6171.82 7767.48,6182.59 7760.77,6181.37"/>
    <poly id="199818095" type="building" color="255,230,230" fill="1" layer="-1.00" shape="7890.47,6194.36 7890.47,6194.14 7890.79,6185.12 7890.85,6183.77 7897.70,6184.00 7897.59,6187.38 7897.35,6193.90 7897.32,6194.63 7893.89,6194.49 7890.47,6194.36"/>
    <poly id="199818096" type="building" color="255,230,230" fill="1" layer="-1.00" shape="7874.33,6193.05 7874.37,6192.46 7869.97,6192.23 7870.59,6180.96 7870.73,6180.96 7870.92,6177.47 7875.74,6177.75 7875.60,6179.94 7884.42,6180.47 7883.65,6192.95 7879.32,6192.71 7879.27,6193.31 7877.00,6193.18 7874.33,6193.05"/>
    <poly id="199818097" type="building" color="255,230,230" fill="1" layer="-1.00" shape="7850.04,6192.55 7850.90,6172.86 7861.05,6173.32 7860.17,6193.00 7850.04,6192.55"/>
    <poly id="200580992" type="building" color="255,230,230" fill="1" layer="-1.00" shape="8223.27,6312.00 8216.88,6312.38 8216.42,6306.01 8222.27,6305.63 8223.27,6312.00"/>
    <poly id="200580993" type="building" color="255,230,230" fill="1" layer="-1.00" shape="8129.23,6314.66 8129.67,6304.83 8146.72,6305.40 8145.45,6306.48 8144.96,6307.36 8144.69,6308.72 8144.95,6310.15 8145.77,6311.42 8147.07,6312.28 8146.99,6315.43 8129.23,6314.66"/>
    <poly id="200580994" type="building" color="255,230,230" fill="1" layer="-1.00" shape="8053.13,6301.00 8056.46,6284.64 8068.36,6287.03 8068.34,6287.18 8064.86,6303.50 8053.13,6301.00"/>
    <poly id="200580996" type="building" color="255,230,230" fill="1" layer="-1.00" shape="8148.53,6312.55 8147.07,6312.28 8145.77,6311.42 8144.95,6310.15 8144.69,6308.72 8144.96,6307.36 8145.45,6306.48 8146.72,6305.40 8147.91,6305.01 8149.14,6305.02 8150.32,6305.44 8151.30,6306.20 8151.98,6307.25 8152.28,6308.45 8152.23,6309.28 8152.01,6310.18 8151.20,6311.42 8149.98,6312.25 8148.53,6312.55"/>
    <poly id="200580996#1" type="historic" color="128,255,128" fill="1" layer="-1.00" shape="8148.53,6312.55 8147.07,6312.28 8145.77,6311.42 8144.95,6310.15 8144.69,6308.72 8144.96,6307.36 8145.45,6306.48 8146.72,6305.40 8147.91,6305.01 8149.14,6305.02 8150.32,6305.44 8151.30,6306.20 8151.98,6307.25 8152.28,6308.45 8152.23,6309.28 8152.01,6310.18 8151.20,6311.42 8149.98,6312.25 8148.53,6312.55"/>
    <poly id="200580996#2" type="building" color="255,230,230" fill="1" layer="-1.00" shape="8148.53,6312.55 8147.07,6312.28 8145.77,6311.42 8144.95,6310.15 8144.69,6308.72 8144.96,6307.36 8145.45,6306.48 8146.72,6305.40 8147.91,6305.01 8149.14,6305.02 8150.32,6305.44 8151.30,6306.20 8151.98,6307.25 8152.28,6308.45 8152.23,6309.28 8152.01,6310.18 8151.20,6311.42 8149.98,6312.25 8148.53,6312.55"/>
    <poly id="200626992" type="building" color="255,230,230" fill="1" layer="-1.00" shape="8705.78,6757.21 8696.35,6752.67 8701.47,6741.04 8710.69,6745.13 8710.14,6746.53 8711.47,6747.07 8710.92,6748.44 8709.63,6747.92 8705.78,6757.21"/>
    <poly id="200626993" type="building" color="255,230,230" fill="1" layer="-1.00" shape="8682.88,6685.60 8683.29,6679.03 8689.77,6679.43 8689.37,6685.99 8682.88,6685.60"/>
    <poly id="200626994" type="building" color="255,230,230" fill="1" layer="-1.00" shape="8672.60,6736.90 8675.48,6730.33 8679.41,6732.06 8679.27,6732.38 8685.18,6734.99 8693.97,6738.85 8694.09,6738.60 8698.05,6740.37 8695.07,6746.79 8672.60,6736.90"/>
    <poly id="200626995" type="building" color="255,230,230" fill="1" layer="-1.00" shape="8658.58,6726.02 8658.94,6723.91 8660.01,6717.41 8668.80,6718.80 8667.44,6727.43 8658.58,6726.02"/>
    <poly id="200626996" type="building" color="255,230,230" fill="1" layer="-1.00" shape="8671.59,6707.23 8673.71,6694.28 8674.92,6686.86 8690.46,6689.41 8689.45,6695.39 8686.29,6714.23 8671.59,6707.23"/>
    <poly id="200626996#1" type="historic" color="128,255,128" fill="1" layer="-1.00" shape="8671.59,6707.23 8673.71,6694.28 8674.92,6686.86 8690.46,6689.41 8689.45,6695.39 8686.29,6714.23 8671.59,6707.23"/>
    <poly id="200626997" type="building" color="255,230,230" fill="1" layer="-1.00" shape="8701.94,6740.01 8706.68,6730.00 8713.43,6733.19 8711.46,6737.16 8710.54,6736.70 8710.15,6737.57 8712.36,6738.64 8709.91,6743.69 8701.94,6740.01"/>
    <poly id="200829137" type="building" color="255,230,230" fill="1" layer="-1.00" shape="8621.10,7166.83 8628.52,7149.81 8666.57,7166.40 8659.14,7183.40 8621.10,7166.83"/>
    <poly id="201073970" type="residential" color="235,235,227" fill="1" layer="-3.00" shape="8576.23,6406.48 8592.27,6378.94 8628.13,6406.93 8652.07,6462.97 8717.26,6565.45 8749.89,6642.57 8732.52,6644.20 8729.26,6627.45 8703.89,6571.93 8676.96,6530.79 8649.30,6489.37 8615.60,6508.61 8603.89,6500.93 8561.21,6476.03 8550.92,6492.22 8545.26,6489.36 8532.20,6489.28 8526.19,6486.02 8576.23,6406.48"/>
    <poly id="202208880" type="building" color="255,230,230" fill="1" layer="-1.00" shape="7822.39,6157.68 7817.00,6157.24 7820.91,6142.38 7826.08,6143.62 7822.39,6157.68"/>
    <poly id="202208881" type="building" color="255,230,230" fill="1" layer="-1.00" shape="7832.52,6158.11 7836.28,6138.35 7841.49,6139.30 7838.13,6155.98 7837.84,6158.22 7832.52,6158.11"/>
    <poly id="202208893" type="building" color="255,230,230" fill="1" layer="-1.00" shape="7813.68,6190.50 7814.11,6182.32 7820.31,6182.56 7820.47,6180.12 7825.91,6180.41 7825.36,6191.11 7813.68,6190.50"/>
    <poly id="202208896" type="building" color="255,230,230" fill="1" layer="-1.00" shape="7870.72,6150.73 7871.21,6147.05 7868.08,6146.69 7868.77,6141.00 7874.51,6141.70 7874.56,6141.46 7880.13,6142.12 7879.48,6147.34 7876.98,6147.05 7876.45,6151.47 7870.72,6150.73"/>
    <poly id="203504955" type="building" color="255,230,230" fill="1" layer="-1.00" shape="7934.37,6196.69 7934.78,6187.01 7940.88,6187.26 7947.48,6187.54 7946.97,6197.20 7939.70,6196.90 7934.37,6196.69"/>
    <poly id="203504957" type="amenity" color="237,199,199" fill="1" layer="-1.00" shape="7945.81,6185.67 7946.36,6174.18 7946.94,6162.30 7951.87,6162.06 7951.51,6170.29 7952.40,6170.32 7951.91,6180.15 7951.69,6184.84 7951.63,6185.78 7947.31,6185.70 7945.81,6185.67"/>
    <poly id="203504957#1" type="building" color="255,230,230" fill="1" layer="-1.00" shape="7945.81,6185.67 7946.36,6174.18 7946.94,6162.30 7951.87,6162.06 7951.51,6170.29 7952.40,6170.32 7951.91,6180.15 7951.69,6184.84 7951.63,6185.78 7947.31,6185.70 7945.81,6185.67"/>
    <poly id="203504958" type="building" color="255,230,230" fill="1" layer="-1.00" shape="7925.32,6196.28 7925.29,6196.11 7925.17,6196.02 7924.64,6196.19 7924.09,6196.18 7923.57,6195.94 7923.19,6195.53 7923.00,6195.00 7923.02,6194.45 7923.26,6193.92 7923.16,6193.78 7923.02,6193.78 7923.23,6190.20 7923.47,6185.20 7928.51,6185.50 7928.64,6183.22 7931.55,6183.40 7931.42,6185.67 7933.93,6185.83 7933.55,6196.64 7925.32,6196.28"/>
    <poly id="203504959" type="building" color="255,230,230" fill="1" layer="-1.00" shape="7998.18,6196.19 7998.22,6196.38 7994.10,6196.46 7994.13,6196.12 8008.06,6157.78 8011.38,6148.66 8011.55,6148.72 8021.35,6152.46 8023.82,6153.41 8024.26,6152.22 8025.48,6152.66 8025.52,6152.56 8029.08,6153.86 8028.64,6155.21 8029.10,6155.38 8025.59,6165.06 8023.85,6169.83 8023.47,6169.68 8022.74,6171.85 8019.88,6170.81 8013.67,6187.71 8017.51,6189.07 8017.47,6189.20 8015.56,6194.54 8013.11,6196.05 8006.90,6196.19 8006.87,6196.00 7998.18,6196.19"/>