<?xml version="1.0" encoding="UTF-8"?>

<!-- generated on Mon Jan 21 11:31:52 2019 by Netedit Version v0_32_0+0000-1499f23f4f
<?xml version="1.0" encoding="UTF-8"?>

<configuration xmlns:xsi="http://www.w3.org/2001/XMLSchema-instance" xsi:noNamespaceSchemaLocation="http://sumo.dlr.de/xsd/netconvertConfiguration.xsd">

    <input>
        <sumo-net-file value="/home/lumpiluk/git/master-thesis/bike-stratmann_branch_python-evi-scenarios/networks/wowmom/wowmom.net.xml"/>
    </input>

    <output>
        <output-file value="/home/lumpiluk/git/master-thesis/bike-stratmann_branch_python-evi-scenarios/networks/wowmom/wowmom.net.xml"/>
    </output>

    <processing>
        <no-turnarounds value="true"/>
        <offset.disable-normalization value="true"/>
        <lefthand value="false"/>
        <junctions.corner-detail value="0"/>
        <rectangular-lane-cut value="false"/>
        <walkingareas value="false"/>
    </processing>

</configuration>
-->

<net version="0.27" xmlns:xsi="http://www.w3.org/2001/XMLSchema-instance" xsi:noNamespaceSchemaLocation="http://sumo.dlr.de/xsd/net_file.xsd">

    <location netOffset="0.00,0.00" convBoundary="0.00,0.00,200.00,200.00" origBoundary="-10000000000.00,-10000000000.00,10000000000.00,10000000000.00" projParameter="!"/>

    <edge id=":center_0" function="internal">
        <lane id=":center_0_0" index="0" allow="bicycle pedestrian" speed="8.33" length="4.44" width="2.50" shape="95.10,107.65 94.93,106.45 94.41,105.59 93.55,105.07 92.35,104.90"/>
    </edge>
    <edge id=":center_1" function="internal">
        <lane id=":center_1_0" index="0" allow="bicycle pedestrian" speed="8.33" length="15.30" width="2.50" shape="95.10,107.65 95.10,92.35"/>
    </edge>
    <edge id=":center_2" function="internal">
        <lane id=":center_2_0" index="0" allow="bicycle pedestrian" speed="8.33" length="20.24" width="2.50" shape="95.10,107.65 95.88,102.16 98.24,98.24 102.16,95.88 107.65,95.10"/>
    </edge>
    <edge id=":center_3" function="internal">
        <lane id=":center_3_0" index="0" speed="13.89" length="9.43" width="3.50" shape="98.20,107.65 97.83,105.09 96.74,103.26 94.91,102.17 92.35,101.80"/>
    </edge>
    <edge id=":center_4" function="internal">
        <lane id=":center_4_0" index="0" speed="13.89" length="15.30" width="3.50" shape="98.20,107.65 98.20,92.35"/>
    </edge>
    <edge id=":center_5" function="internal">
        <lane id=":center_5_0" index="0" speed="13.89" length="15.24" width="3.50" shape="98.20,107.65 98.79,103.52 100.56,100.56 103.52,98.79 107.65,98.20"/>
    </edge>
    <edge id=":center_6" function="internal">
        <lane id=":center_6_0" index="0" allow="bicycle pedestrian" speed="8.33" length="4.44" width="2.50" shape="107.65,104.90 106.45,105.07 105.59,105.59 105.07,106.45 104.90,107.65"/>
    </edge>
    <edge id=":center_7" function="internal">
        <lane id=":center_7_0" index="0" allow="bicycle pedestrian" speed="8.33" length="15.30" width="2.50" shape="107.65,104.90 92.35,104.90"/>
    </edge>
    <edge id=":center_8" function="internal">
        <lane id=":center_8_0" index="0" allow="bicycle pedestrian" speed="8.33" length="12.23" width="2.50" shape="107.65,104.90 102.16,104.12 98.24,101.76 97.15,99.95"/>
    </edge>
    <edge id=":center_9" function="internal">
        <lane id=":center_9_0" index="0" speed="13.89" length="3.04" width="3.50" shape="107.65,101.80 105.09,102.17 104.70,102.40"/>
    </edge>
    <edge id=":center_10" function="internal">
        <lane id=":center_10_0" index="0" speed="13.90" length="15.30" width="3.50" shape="107.65,101.80 92.35,101.80"/>
    </edge>
    <edge id=":center_11" function="internal">
        <lane id=":center_11_0" index="0" speed="13.89" length="6.62" width="3.50" shape="107.65,101.80 103.52,101.21 101.42,99.95"/>
    </edge>
    <edge id=":center_24" function="internal">
        <lane id=":center_24_0" index="0" speed="8.33" length="8.01" width="2.50" shape="97.15,99.95 95.88,97.84 95.10,92.35"/>
    </edge>
    <edge id=":center_25" function="internal">
        <lane id=":center_25_0" index="0" speed="13.89" length="6.39" width="3.50" shape="104.70,102.40 103.26,103.26 102.17,105.09 101.80,107.65"/>
    </edge>
    <edge id=":center_26" function="internal">
        <lane id=":center_26_0" index="0" speed="13.89" length="8.62" width="3.50" shape="101.42,99.95 100.56,99.44 98.79,96.48 98.20,92.35"/>
    </edge>
    <edge id=":center_12" function="internal">
        <lane id=":center_12_0" index="0" allow="bicycle pedestrian" speed="8.33" length="4.44" width="2.50" shape="104.90,92.35 105.07,93.55 105.59,94.41 106.45,94.93 107.65,95.10"/>
    </edge>
    <edge id=":center_13" function="internal">
        <lane id=":center_13_0" index="0" allow="bicycle pedestrian" speed="8.33" length="15.30" width="2.50" shape="104.90,92.35 104.90,107.65"/>
    </edge>
    <edge id=":center_14" function="internal">
        <lane id=":center_14_0" index="0" allow="bicycle pedestrian" speed="8.33" length="20.24" width="2.50" shape="104.90,92.35 104.12,97.84 101.76,101.76 97.84,104.12 92.35,104.90"/>
    </edge>
    <edge id=":center_15" function="internal">
        <lane id=":center_15_0" index="0" speed="13.89" length="9.43" width="3.50" shape="101.80,92.35 102.17,94.91 103.26,96.74 105.09,97.83 107.65,98.20"/>
    </edge>
    <edge id=":center_16" function="internal">
        <lane id=":center_16_0" index="0" speed="13.89" length="15.30" width="3.50" shape="101.80,92.35 101.80,107.65"/>
    </edge>
    <edge id=":center_17" function="internal">
        <lane id=":center_17_0" index="0" speed="13.89" length="15.24" width="3.50" shape="101.80,92.35 101.21,96.48 99.44,99.44 96.48,101.21 92.35,101.80"/>
    </edge>
    <edge id=":center_18" function="internal">
        <lane id=":center_18_0" index="0" allow="bicycle pedestrian" speed="8.33" length="4.44" width="2.50" shape="92.35,95.10 93.55,94.93 94.41,94.41 94.93,93.55 95.10,92.35"/>
    </edge>
    <edge id=":center_19" function="internal">
        <lane id=":center_19_0" index="0" allow="bicycle pedestrian" speed="8.33" length="15.30" width="2.50" shape="92.35,95.10 107.65,95.10"/>
    </edge>
    <edge id=":center_20" function="internal">
        <lane id=":center_20_0" index="0" allow="bicycle pedestrian" speed="8.33" length="12.23" width="2.50" shape="92.35,95.10 97.84,95.88 101.76,98.24 102.85,100.05"/>
    </edge>
    <edge id=":center_21" function="internal">
        <lane id=":center_21_0" index="0" speed="13.89" length="3.04" width="3.50" shape="92.35,98.20 94.91,97.83 95.30,97.60"/>
    </edge>
    <edge id=":center_22" function="internal">
        <lane id=":center_22_0" index="0" speed="13.90" length="15.30" width="3.50" shape="92.35,98.20 107.65,98.20"/>
    </edge>
    <edge id=":center_23" function="internal">
        <lane id=":center_23_0" index="0" speed="13.89" length="6.62" width="3.50" shape="92.35,98.20 96.48,98.79 98.58,100.05"/>
    </edge>
    <edge id=":center_27" function="internal">
        <lane id=":center_27_0" index="0" speed="8.33" length="8.01" width="2.50" shape="102.85,100.05 104.12,102.16 104.90,107.65"/>
    </edge>
    <edge id=":center_28" function="internal">
        <lane id=":center_28_0" index="0" speed="13.89" length="6.39" width="3.50" shape="95.30,97.60 96.74,96.74 97.83,94.91 98.20,92.35"/>
    </edge>
    <edge id=":center_29" function="internal">
        <lane id=":center_29_0" index="0" speed="13.89" length="8.62" width="3.50" shape="98.58,100.05 99.44,100.56 101.21,103.52 101.80,107.65"/>
    </edge>

    <edge id="centerToEast" from="center" to="east" priority="1">
        <lane id="centerToEast_0" index="0" allow="bicycle pedestrian" speed="8.33" length="92.35" width="2.50" shape="107.65,95.10 200.00,95.10"/>
        <lane id="centerToEast_1" index="1" speed="13.90" length="92.35" width="3.50" shape="107.65,98.20 200.00,98.20"/>
    </edge>
    <edge id="centerToNorth" from="center" to="north" priority="1">
        <lane id="centerToNorth_0" index="0" allow="bicycle pedestrian" speed="8.33" length="92.35" width="2.50" shape="104.90,107.65 104.90,200.00"/>
        <lane id="centerToNorth_1" index="1" speed="13.89" length="92.35" width="3.50" shape="101.80,107.65 101.80,200.00"/>
    </edge>
    <edge id="centerToSouth" from="center" to="south" priority="1">
        <lane id="centerToSouth_0" index="0" allow="bicycle pedestrian" speed="8.33" length="92.35" width="2.50" shape="95.10,92.35 95.10,0.00"/>
        <lane id="centerToSouth_1" index="1" speed="13.89" length="92.35" width="3.50" shape="98.20,92.35 98.20,0.00"/>
    </edge>
    <edge id="centerToWest" from="center" to="west" priority="1">
        <lane id="centerToWest_0" index="0" allow="bicycle pedestrian" speed="8.33" length="92.35" width="2.50" shape="92.35,104.90 0.00,104.90"/>
        <lane id="centerToWest_1" index="1" speed="13.90" length="92.35" width="3.50" shape="92.35,101.80 0.00,101.80"/>
    </edge>
    <edge id="eastToCenter" from="east" to="center" priority="1">
        <lane id="eastToCenter_0" index="0" allow="bicycle pedestrian" speed="8.33" length="92.35" width="2.50" shape="200.00,104.90 107.65,104.90"/>
        <lane id="eastToCenter_1" index="1" speed="13.90" length="92.35" width="3.50" shape="200.00,101.80 107.65,101.80"/>
    </edge>
    <edge id="northToCenter" from="north" to="center" priority="1">
        <lane id="northToCenter_0" index="0" allow="bicycle pedestrian" speed="8.33" length="92.35" width="2.50" shape="95.10,200.00 95.10,107.65"/>
        <lane id="northToCenter_1" index="1" speed="13.89" length="92.35" width="3.50" shape="98.20,200.00 98.20,107.65"/>
    </edge>
    <edge id="southToCenter" from="south" to="center" priority="1">
        <lane id="southToCenter_0" index="0" allow="bicycle pedestrian" speed="8.33" length="92.35" width="2.50" shape="104.90,0.00 104.90,92.35"/>
        <lane id="southToCenter_1" index="1" speed="13.89" length="92.35" width="3.50" shape="101.80,0.00 101.80,92.35"/>
    </edge>
    <edge id="westToCenter" from="west" to="center" priority="1">
        <lane id="westToCenter_0" index="0" allow="bicycle pedestrian" speed="8.33" length="92.35" width="2.50" shape="0.00,95.10 92.35,95.10"/>
        <lane id="westToCenter_1" index="1" speed="13.90" length="92.35" width="3.50" shape="0.00,98.20 92.35,98.20"/>
    </edge>

    <junction id="center" type="priority" x="100.00" y="100.00" incLanes="northToCenter_0 northToCenter_1 eastToCenter_0 eastToCenter_1 southToCenter_0 southToCenter_1 westToCenter_0 westToCenter_1" intLanes=":center_0_0 :center_1_0 :center_2_0 :center_3_0 :center_4_0 :center_5_0 :center_6_0 :center_7_0 :center_24_0 :center_25_0 :center_10_0 :center_26_0 :center_12_0 :center_13_0 :center_14_0 :center_15_0 :center_16_0 :center_17_0 :center_18_0 :center_19_0 :center_27_0 :center_28_0 :center_22_0 :center_29_0" shape="93.85,107.65 106.15,107.65 107.65,106.15 107.65,93.85 106.15,92.35 93.85,92.35 92.35,93.85 92.35,106.15">
        <request index="0" response="000000000000010010000000" foes="000000100100010010000000" cont="0"/>
        <request index="1" response="111111000000110110000000" foes="111111100100110110000000" cont="0"/>
        <request index="2" response="110110011011110110010000" foes="110110011011110110010000" cont="0"/>
        <request index="3" response="000000000000010010000110" foes="000000100100010010000110" cont="0"/>
        <request index="4" response="111111000000110110000000" foes="111111100100110110000000" cont="0"/>
        <request index="5" response="110110011011110110000000" foes="110110011011110110000000" cont="0"/>
        <request index="6" response="000000000000000000000000" foes="100100010010000000000000" cont="0"/>
        <request index="7" response="000000000000000000000000" foes="100100110110000000111111" cont="0"/>
        <request index="8" response="011011000000010000000000" foes="011011110110010000110110" cont="1"/>
        <request index="9" response="000000000000000110000000" foes="100100010010000110000000" cont="1"/>
        <request index="10" response="000000000000000000000000" foes="100100110110000000111111" cont="0"/>
        <request index="11" response="011011000000000000000000" foes="011011110110000000110110" cont="1"/>
        <request index="12" response="010010000000000000000000" foes="010010000000000000100100" cont="0"/>
        <request index="13" response="110110000000111111000000" foes="110110000000111111100100" cont="0"/>
        <request index="14" response="110110010000110110011011" foes="110110010000110110011011" cont="0"/>
        <request index="15" response="010010000110000000000000" foes="010010000110000000100100" cont="0"/>
        <request index="16" response="110110000000111111000000" foes="110110000000111111100100" cont="0"/>
        <request index="17" response="110110000000110110011011" foes="110110000000110110011011" cont="0"/>
        <request index="18" response="000000000000000000000000" foes="000000000000100100010010" cont="0"/>
        <request index="19" response="000000000000000000000000" foes="000000111111100100110110" cont="0"/>
        <request index="20" response="010000000000011011000000" foes="010000110110011011110110" cont="1"/>
        <request index="21" response="000110000000000000000000" foes="000110000000100100010010" cont="1"/>
        <request index="22" response="000000000000000000000000" foes="000000111111100100110110" cont="0"/>
        <request index="23" response="000000000000011011000000" foes="000000110110011011110110" cont="1"/>
    </junction>
    <junction id="east" type="dead_end" x="200.00" y="100.00" incLanes="centerToEast_0 centerToEast_1" intLanes="" shape="200.00,100.05 200.00,93.85 200.00,99.95"/>
    <junction id="north" type="dead_end" x="100.00" y="200.00" incLanes="centerToNorth_0 centerToNorth_1" intLanes="" shape="99.95,200.00 106.15,200.00 100.05,200.00"/>
    <junction id="south" type="dead_end" x="100.00" y="0.00" incLanes="centerToSouth_0 centerToSouth_1" intLanes="" shape="100.05,0.00 93.85,0.00 99.95,0.00"/>
    <junction id="west" type="dead_end" x="0.00" y="100.00" incLanes="centerToWest_0 centerToWest_1" intLanes="" shape="0.00,99.95 0.00,106.15 0.00,100.05"/>

    <junction id=":center_24_0" type="internal" x="97.15" y="99.95" incLanes=":center_8_0 westToCenter_0 westToCenter_1" intLanes=":center_1_0 :center_2_0 :center_4_0 :center_5_0 :center_10_0 :center_13_0 :center_14_0 :center_16_0 :center_17_0 :center_18_0 :center_19_0 :center_21_0 :center_22_0"/>
    <junction id=":center_25_0" type="internal" x="104.70" y="102.40" incLanes=":center_9_0 eastToCenter_0" intLanes=":center_7_0 :center_8_0 :center_13_0 :center_16_0 :center_20_0 :center_23_0"/>
    <junction id=":center_26_0" type="internal" x="101.42" y="99.95" incLanes=":center_11_0 westToCenter_0 westToCenter_1" intLanes=":center_1_0 :center_2_0 :center_4_0 :center_5_0 :center_13_0 :center_14_0 :center_16_0 :center_17_0 :center_18_0 :center_19_0 :center_21_0 :center_22_0"/>
    <junction id=":center_27_0" type="internal" x="102.85" y="100.05" incLanes=":center_20_0 eastToCenter_0 eastToCenter_1" intLanes=":center_1_0 :center_2_0 :center_4_0 :center_5_0 :center_6_0 :center_7_0 :center_9_0 :center_10_0 :center_13_0 :center_14_0 :center_16_0 :center_17_0 :center_22_0"/>
    <junction id=":center_28_0" type="internal" x="95.30" y="97.60" incLanes=":center_21_0 westToCenter_0" intLanes=":center_1_0 :center_4_0 :center_8_0 :center_11_0 :center_19_0 :center_20_0"/>
    <junction id=":center_29_0" type="internal" x="98.58" y="100.05" incLanes=":center_23_0 eastToCenter_0 eastToCenter_1" intLanes=":center_1_0 :center_2_0 :center_4_0 :center_5_0 :center_6_0 :center_7_0 :center_9_0 :center_10_0 :center_13_0 :center_14_0 :center_16_0 :center_17_0"/>

    <connection from="eastToCenter" to="centerToNorth" fromLane="0" toLane="0" via=":center_6_0" dir="r" state="M"/>
    <connection from="eastToCenter" to="centerToWest" fromLane="0" toLane="0" via=":center_7_0" dir="s" state="M"/>
    <connection from="eastToCenter" to="centerToSouth" fromLane="0" toLane="0" via=":center_8_0" dir="l" state="m"/>
    <connection from="eastToCenter" to="centerToNorth" fromLane="1" toLane="1" via=":center_9_0" dir="r" state="m"/>
    <connection from="eastToCenter" to="centerToWest" fromLane="1" toLane="1" via=":center_10_0" dir="s" state="M"/>
    <connection from="eastToCenter" to="centerToSouth" fromLane="1" toLane="1" via=":center_11_0" dir="l" state="m"/>
    <connection from="northToCenter" to="centerToWest" fromLane="0" toLane="0" via=":center_0_0" dir="r" state="m"/>
    <connection from="northToCenter" to="centerToSouth" fromLane="0" toLane="0" via=":center_1_0" dir="s" state="m"/>
    <connection from="northToCenter" to="centerToEast" fromLane="0" toLane="0" via=":center_2_0" dir="l" state="m"/>
    <connection from="northToCenter" to="centerToWest" fromLane="1" toLane="1" via=":center_3_0" dir="r" state="m"/>
    <connection from="northToCenter" to="centerToSouth" fromLane="1" toLane="1" via=":center_4_0" dir="s" state="m"/>
    <connection from="northToCenter" to="centerToEast" fromLane="1" toLane="1" via=":center_5_0" dir="l" state="m"/>
    <connection from="southToCenter" to="centerToEast" fromLane="0" toLane="0" via=":center_12_0" dir="r" state="m"/>
    <connection from="southToCenter" to="centerToNorth" fromLane="0" toLane="0" via=":center_13_0" dir="s" state="m"/>
    <connection from="southToCenter" to="centerToWest" fromLane="0" toLane="0" via=":center_14_0" dir="l" state="m"/>
    <connection from="southToCenter" to="centerToEast" fromLane="1" toLane="1" via=":center_15_0" dir="r" state="m"/>
    <connection from="southToCenter" to="centerToNorth" fromLane="1" toLane="1" via=":center_16_0" dir="s" state="m"/>
    <connection from="southToCenter" to="centerToWest" fromLane="1" toLane="1" via=":center_17_0" dir="l" state="m"/>
    <connection from="westToCenter" to="centerToSouth" fromLane="0" toLane="0" via=":center_18_0" dir="r" state="M"/>
    <connection from="westToCenter" to="centerToEast" fromLane="0" toLane="0" via=":center_19_0" dir="s" state="M"/>
    <connection from="westToCenter" to="centerToNorth" fromLane="0" toLane="0" via=":center_20_0" dir="l" state="m"/>
    <connection from="westToCenter" to="centerToSouth" fromLane="1" toLane="1" via=":center_21_0" dir="r" state="m"/>
    <connection from="westToCenter" to="centerToEast" fromLane="1" toLane="1" via=":center_22_0" dir="s" state="M"/>
    <connection from="westToCenter" to="centerToNorth" fromLane="1" toLane="1" via=":center_23_0" dir="l" state="m"/>

    <connection from=":center_0" to="centerToWest" fromLane="0" toLane="0" dir="r" state="M"/>
    <connection from=":center_1" to="centerToSouth" fromLane="0" toLane="0" dir="s" state="M"/>
    <connection from=":center_2" to="centerToEast" fromLane="0" toLane="0" dir="l" state="M"/>
    <connection from=":center_3" to="centerToWest" fromLane="0" toLane="1" dir="r" state="M"/>
    <connection from=":center_4" to="centerToSouth" fromLane="0" toLane="1" dir="s" state="M"/>
    <connection from=":center_5" to="centerToEast" fromLane="0" toLane="1" dir="l" state="M"/>
    <connection from=":center_6" to="centerToNorth" fromLane="0" toLane="0" dir="r" state="M"/>
    <connection from=":center_7" to="centerToWest" fromLane="0" toLane="0" dir="s" state="M"/>
    <connection from=":center_8" to="centerToSouth" fromLane="0" toLane="0" via=":center_24_0" dir="l" state="m"/>
    <connection from=":center_24" to="centerToSouth" fromLane="0" toLane="0" dir="l" state="M"/>
    <connection from=":center_9" to="centerToNorth" fromLane="0" toLane="1" via=":center_25_0" dir="r" state="m"/>
    <connection from=":center_25" to="centerToNorth" fromLane="0" toLane="1" dir="r" state="M"/>
    <connection from=":center_10" to="centerToWest" fromLane="0" toLane="1" dir="s" state="M"/>
    <connection from=":center_11" to="centerToSouth" fromLane="0" toLane="1" via=":center_26_0" dir="l" state="m"/>
    <connection from=":center_26" to="centerToSouth" fromLane="0" toLane="1" dir="l" state="M"/>
    <connection from=":center_12" to="centerToEast" fromLane="0" toLane="0" dir="r" state="M"/>
    <connection from=":center_13" to="centerToNorth" fromLane="0" toLane="0" dir="s" state="M"/>
    <connection from=":center_14" to="centerToWest" fromLane="0" toLane="0" dir="l" state="M"/>
    <connection from=":center_15" to="centerToEast" fromLane="0" toLane="1" dir="r" state="M"/>
    <connection from=":center_16" to="centerToNorth" fromLane="0" toLane="1" dir="s" state="M"/>
    <connection from=":center_17" to="centerToWest" fromLane="0" toLane="1" dir="l" state="M"/>
    <connection from=":center_18" to="centerToSouth" fromLane="0" toLane="0" dir="r" state="M"/>
    <connection from=":center_19" to="centerToEast" fromLane="0" toLane="0" dir="s" state="M"/>
    <connection from=":center_20" to="centerToNorth" fromLane="0" toLane="0" via=":center_27_0" dir="l" state="m"/>
    <connection from=":center_27" to="centerToNorth" fromLane="0" toLane="0" dir="l" state="M"/>
    <connection from=":center_21" to="centerToSouth" fromLane="0" toLane="1" via=":center_28_0" dir="r" state="m"/>
    <connection from=":center_28" to="centerToSouth" fromLane="0" toLane="1" dir="r" state="M"/>
    <connection from=":center_22" to="centerToEast" fromLane="0" toLane="1" dir="s" state="M"/>
    <connection from=":center_23" to="centerToNorth" fromLane="0" toLane="1" via=":center_29_0" dir="l" state="m"/>
    <connection from=":center_29" to="centerToNorth" fromLane="0" toLane="1" dir="l" state="M"/>

</net>
