[General]
cmdenv-express-mode = false
cmdenv-autoflush = true
cmdenv-event-banners = false
# cmdenv-status-frequency = 10s
**.cmdenv-log-level = debug

ned-path = .
image-path = ../../images

network = EVIExampleScenario

##########################################################
#            Simulation parameters                       #
##########################################################
debug-on-errors = true
print-undisposed = true

sim-time-limit = 600000s

**.scalar-recording = true
**.vector-recording = true

**.debug = false
**.coreDebug = false

*.playgroundSizeX = 100000m
*.playgroundSizeY = 100000m
*.playgroundSizeZ = 50m


##########################################################
# Annotation parameters                                  #
##########################################################
*.annotations.draw = true

##########################################################
# Obstacle parameters                                    #
##########################################################
#*.obstacles.obstacles = xmldoc("config.xml", "//AnalogueModel[@type='SimpleObstacleShadowing']/obstacles")

##########################################################
#             EVI ScenarioManager parameters             #
##########################################################
#*.manager.moduleType = "org.car2x.veins.nodes.lanradio.LanradioCar"
*.manager.margin = 100
*.manager.port = 12347
*.manager.host_iface = "0.0.0.0"

##########################################################
#                  LanRadio parameters                   #
##########################################################
*.lanradio.wlan_interface = "wlan0"
*.lanradio.wlan_ip = "192.168.55.1"
*.lanradio.hostname = "localhost"
*.lanradio.baseport = 19191

*.lanradio.txpower = "3000"
*.lanradio.bitrates = "legacy-5 6"
*.lanradio.freq = "5900"
*.lanradio.bandwidth = "10MHZ"
*.lanradio.lara_debug = true

##########################################################
#            11p specific parameters                     #
#                                                        #
#                    NIC-Settings                        #
##########################################################
*.connectionManager.sendDirect = true
*.connectionManager.maxInterfDist = 2600m
*.connectionManager.drawMaxIntfDist = false

*.**.nic.mac1609_4.useServiceChannel = false

*.**.nic.mac1609_4.txPower = 20mW
*.**.nic.mac1609_4.bitrate = 6Mbps
*.**.nic.phy80211p.minPowerLevel = -110dBm

*.**.nic.phy80211p.useNoiseFloor = true
*.**.nic.phy80211p.noiseFloor = -98dBm

*.**.nic.phy80211p.decider = xmldoc("config.xml")
*.**.nic.phy80211p.analogueModels = xmldoc("config.xml")
*.**.nic.phy80211p.usePropagationDelay = true

*.**.nic.phy80211p.antenna = xmldoc("antenna.xml", "/root/Antenna[@id='monopole']")
*.node[*].nic.phy80211p.antennaOffsetY = 0 m
*.node[*].nic.phy80211p.antennaOffsetZ = 1.895 m

##########################################################
#                    WaveAppLayer                        #
##########################################################
*.node[*].applType = "org.car2x.veins.subprojects.veins_evi.App"
*.node[*].appl.headerLength = 80 bit
*.node[*].appl.sendBeacons = true

##########################################################
#                      Mobility                          #
##########################################################
*.node[*].veinsmobilityType = "org.car2x.veins.subprojects.veins_evi.Mobility"
*.node[*].veinsmobilityType.debug = true
*.node[*].veinsmobility.x = 0
*.node[*].veinsmobility.y = 0
*.node[*].veinsmobility.z = 0
*.node[*].veinsmobility.setHostSpeed = false
*.node[*0].veinsmobility.accidentCount = 1
*.node[*0].veinsmobility.accidentStart = 75s
*.node[*0].veinsmobility.accidentDuration = 50s

##########################################################
#                  CollisionManager                      #
##########################################################
*.collisionManager.checkCollisionsOnlyForStoppedVehicles = true

[Config LanradioEnabled]
*.lanradio.use_lanradio = true
# the first node will have the Lanradio Interface
# assuming this sould always be the ego vehicle
*.node[0].nicType = "org.car2x.veins.subprojects.veins_lara.LanradioNic80211p"
*.node[0].nic.mac1609_4.send_to_lanradio = true

[Config LanradioDisabled]
*.lanradio.use_lanradio = false
*.node[*].nic.mac1609_4.send_to_lanradio = false
