<?xml version="1.0" encoding="UTF-8"?>
<routes xmlns:xsi="http://www.w3.org/2001/XMLSchema-instance" xsi:noNamespaceSchemaLocation="http://sumo.dlr.de/xsd/routes_file.xsd">
	<!-- type and route information for ego vehicle to allow external spawning -->
	<vType id="ego-type" color="blue"/>
	<route id="ego-route" edges="B4A1 A1B2"/>
</routes>
