<?xml version="1.0" encoding="UTF-8"?>

<!-- generated on 2023-07-14 22:20:33.008068 by randomTrips.py v1.18.0-0000000000
<configuration>
    <net-file value="network.net.xml"/>
    <output-trip-file value="network_bicycles.trips.xml"/>
    <route-file value="network_bicycles.rou.xml"/>
    <vehicle-class value="bicycle"/>
    <period value="3.0"/>
    <random-depart value="True"/>
</configuration>
-->

<!-- generated on 2023-07-14 22:20:32 by Eclipse SUMO duarouter Version 1.18.0
<configuration xmlns:xsi="http://www.w3.org/2001/XMLSchema-instance" xsi:noNamespaceSchemaLocation="http://sumo.dlr.de/xsd/duarouterConfiguration.xsd">

    <input>
        <net-file value="network.net.xml"/>
        <route-files value="network_bicycles.trips.xml"/>
    </input>

    <output>
        <output-file value="network_bicycles.rou.xml"/>
        <alternatives-output value="NUL"/>
    </output>

    <time>
        <begin value="0"/>
        <end value="3600"/>
    </time>

    <report>
        <no-warnings value="true"/>
        <ignore-errors value="true"/>
        <no-step-log value="true"/>
    </report>

</configuration>
-->

<routes xmlns:xsi="http://www.w3.org/2001/XMLSchema-instance" xsi:noNamespaceSchemaLocation="http://sumo.dlr.de/xsd/routes_file.xsd">
    <vType id="bicycle" vClass="bicycle"/>
    <vehicle id="0" type="bicycle" depart="1.00">
        <route edges="A1B4 B4A1 A1B2 B2B1"/>
    </vehicle>
    <vehicle id="1" type="bicycle" depart="2.00">
        <route edges="A1B3 B3A1 A1B1 B1B4"/>
    </vehicle>
    <vehicle id="2" type="bicycle" depart="6.00">
        <route edges="B3B2 B2A1"/>
    </vehicle>
    <vehicle id="3" type="bicycle" depart="8.00">
        <route edges="A1B1 B1A1"/>
    </vehicle>
    <vehicle id="4" type="bicycle" depart="13.00">
        <route edges="B1A1 A1B4 B4A1"/>
    </vehicle>
    <vehicle id="5" type="bicycle" depart="14.00">
        <route edges="A1B2 B2A1 A1B4"/>
    </vehicle>
    <vehicle id="6" type="bicycle" depart="22.00">
        <route edges="B1A1 A1B3 B3B4"/>
    </vehicle>
    <vehicle id="7" type="bicycle" depart="24.00">
        <route edges="B2B3 B3B4"/>
    </vehicle>
    <vehicle id="8" type="bicycle" depart="26.00">
        <route edges="A1B4 B4A1 A1B2"/>
    </vehicle>
    <vehicle id="9" type="bicycle" depart="29.00">
        <route edges="A1B4 B4A1 A1B3"/>
    </vehicle>
    <vehicle id="10" type="bicycle" depart="32.00">
        <route edges="B1A1 A1B3"/>
    </vehicle>
    <vehicle id="11" type="bicycle" depart="38.00">
        <route edges="A1B1 B1A1 A1B3 B3B4"/>
    </vehicle>
    <vehicle id="12" type="bicycle" depart="39.00">
        <route edges="B2B3 B3B4 B4A1"/>
    </vehicle>
    <vehicle id="13" type="bicycle" depart="41.00">
        <route edges="B4B1 B1B2 B2A1"/>
    </vehicle>
    <vehicle id="14" type="bicycle" depart="47.00">
        <route edges="B2A1 A1B1 B1A1"/>
    </vehicle>
    <vehicle id="15" type="bicycle" depart="50.00">
        <route edges="B1B4 B4B1 B1A1"/>
    </vehicle>
    <vehicle id="16" type="bicycle" depart="51.00">
        <route edges="B2B1 B1B2 B2A1"/>
    </vehicle>
    <vehicle id="17" type="bicycle" depart="57.00">
        <route edges="B2B3 B3B4 B4B1"/>
    </vehicle>
    <vehicle id="18" type="bicycle" depart="60.00">
        <route edges="B3B2 B2B3"/>
    </vehicle>
    <vehicle id="19" type="bicycle" depart="70.00">
        <route edges="A1B1 B1A1 A1B4"/>
    </vehicle>
    <vehicle id="20" type="bicycle" depart="79.00">
        <route edges="B3A1 A1B4 B4A1"/>
    </vehicle>
    <vehicle id="21" type="bicycle" depart="79.00">
        <route edges="B2B3 B3A1 A1B1"/>
    </vehicle>
    <vehicle id="22" type="bicycle" depart="80.00">
        <route edges="B3B4 B4A1"/>
    </vehicle>
    <vehicle id="23" type="bicycle" depart="83.00">
        <route edges="B2B3 B3B4"/>
    </vehicle>
    <vehicle id="24" type="bicycle" depart="86.00">
        <route edges="A1B3 B3B2 B2B1"/>
    </vehicle>
    <vehicle id="25" type="bicycle" depart="96.00">
        <route edges="B2A1 A1B1 B1A1"/>
    </vehicle>
    <vehicle id="26" type="bicycle" depart="100.00">
        <route edges="B4B3 B3A1 A1B1 B1B4"/>
    </vehicle>
    <vehicle id="27" type="bicycle" depart="101.00">
        <route edges="B4A1 A1B4 B4B3"/>
    </vehicle>
    <vehicle id="28" type="bicycle" depart="102.00">
        <route edges="B2A1 A1B1 B1B4"/>
    </vehicle>
    <vehicle id="29" type="bicycle" depart="105.00">
        <route edges="B1B2 B2A1 A1B2"/>
    </vehicle>
    <vehicle id="30" type="bicycle" depart="108.00">
        <route edges="A1B3 B3A1 A1B1 B1B4"/>
    </vehicle>
    <vehicle id="31" type="bicycle" depart="110.00">
        <route edges="B2A1 A1B3 B3A1"/>
    </vehicle>
    <vehicle id="32" type="bicycle" depart="111.00">
        <route edges="B1B4 B4B3 B3B4"/>
    </vehicle>
    <vehicle id="33" type="bicycle" depart="113.00">
        <route edges="A1B1 B1A1 A1B2"/>
    </vehicle>
    <vehicle id="34" type="bicycle" depart="117.00">
        <route edges="B1A1 A1B2"/>
    </vehicle>
    <vehicle id="35" type="bicycle" depart="118.00">
        <route edges="B3B4 B4A1"/>
    </vehicle>
    <vehicle id="36" type="bicycle" depart="122.00">
        <route edges="B4A1 A1B1"/>
    </vehicle>
    <vehicle id="37" type="bicycle" depart="127.00">
        <route edges="B4A1 A1B2 B2A1"/>
    </vehicle>
    <vehicle id="38" type="bicycle" depart="128.00">
        <route edges="A1B1 B1B2 B2B1"/>
    </vehicle>
    <vehicle id="39" type="bicycle" depart="130.00">
        <route edges="B2B3 B3B2 B2A1"/>
    </vehicle>
    <vehicle id="40" type="bicycle" depart="131.00">
        <route edges="B2A1 A1B1"/>
    </vehicle>
    <vehicle id="41" type="bicycle" depart="147.00">
        <route edges="B1A1 A1B3"/>
    </vehicle>
    <vehicle id="42" type="bicycle" depart="156.00">
        <route edges="B1A1 A1B4 B4B1"/>
    </vehicle>
    <vehicle id="43" type="bicycle" depart="158.00">
        <route edges="B2A1 A1B1"/>
    </vehicle>
    <vehicle id="44" type="bicycle" depart="162.00">
        <route edges="B3A1 A1B3 B3B4"/>
    </vehicle>
    <vehicle id="45" type="bicycle" depart="163.00">
        <route edges="B3B2 B2B1 B1A1"/>
    </vehicle>
    <vehicle id="46" type="bicycle" depart="164.00">
        <route edges="A1B1 B1B4"/>
    </vehicle>
    <vehicle id="47" type="bicycle" depart="168.00">
        <route edges="A1B4 B4A1"/>
    </vehicle>
    <vehicle id="48" type="bicycle" depart="171.00">
        <route edges="A1B2 B2A1 A1B4 B4B3"/>
    </vehicle>
    <vehicle id="49" type="bicycle" depart="177.00">
        <route edges="B3A1 A1B3"/>
    </vehicle>
    <vehicle id="50" type="bicycle" depart="180.00">
        <route edges="B4B1 B1A1"/>
    </vehicle>
    <vehicle id="51" type="bicycle" depart="181.00">
        <route edges="B3B2 B2B1 B1B4"/>
    </vehicle>
    <vehicle id="52" type="bicycle" depart="186.00">
        <route edges="B2A1"/>
    </vehicle>
    <vehicle id="53" type="bicycle" depart="187.00">
        <route edges="B2A1 A1B3"/>
    </vehicle>
    <vehicle id="54" type="bicycle" depart="189.00">
        <route edges="A1B4 B4A1 A1B2 B2B3"/>
    </vehicle>
    <vehicle id="55" type="bicycle" depart="192.00">
        <route edges="B3B2 B2A1 A1B3"/>
    </vehicle>
    <vehicle id="56" type="bicycle" depart="205.00">
        <route edges="A1B2 B2B3 B3B4"/>
    </vehicle>
    <vehicle id="57" type="bicycle" depart="205.00">
        <route edges="B4A1 A1B1 B1B2"/>
    </vehicle>
    <vehicle id="58" type="bicycle" depart="205.00">
        <route edges="B3B4 B4B1 B1A1"/>
    </vehicle>
    <vehicle id="59" type="bicycle" depart="207.00">
        <route edges="A1B1 B1A1 A1B3 B3B2"/>
    </vehicle>
    <vehicle id="60" type="bicycle" depart="208.00">
        <route edges="B4A1 A1B2 B2B3"/>
    </vehicle>
    <vehicle id="61" type="bicycle" depart="210.00">
        <route edges="B3A1 A1B4 B4A1"/>
    </vehicle>
    <vehicle id="62" type="bicycle" depart="213.00">
        <route edges="B2A1"/>
    </vehicle>
    <vehicle id="63" type="bicycle" depart="219.00">
        <route edges="B1B2 B2B3 B3B4"/>
    </vehicle>
    <vehicle id="64" type="bicycle" depart="221.00">
        <route edges="B1B4 B4B1"/>
    </vehicle>
    <vehicle id="65" type="bicycle" depart="223.00">
        <route edges="B4A1 A1B4 B4B3"/>
    </vehicle>
    <vehicle id="66" type="bicycle" depart="229.00">
        <route edges="A1B4 B4B1 B1B4"/>
    </vehicle>
    <vehicle id="67" type="bicycle" depart="232.00">
        <route edges="B4A1 A1B1 B1B4"/>
    </vehicle>
    <vehicle id="68" type="bicycle" depart="234.00">
        <route edges="B1B2 B2A1"/>
    </vehicle>
    <vehicle id="69" type="bicycle" depart="237.00">
        <route edges="B4B1 B1B4"/>
    </vehicle>
    <vehicle id="70" type="bicycle" depart="239.00">
        <route edges="B4B3 B3B4"/>
    </vehicle>
    <vehicle id="71" type="bicycle" depart="240.00">
        <route edges="B3A1 A1B3"/>
    </vehicle>
    <vehicle id="72" type="bicycle" depart="241.00">
        <route edges="B4B3 B3A1 A1B3"/>
    </vehicle>
    <vehicle id="73" type="bicycle" depart="246.00">
        <route edges="B4B3 B3A1 A1B1 B1B2"/>
    </vehicle>
    <vehicle id="74" type="bicycle" depart="248.00">
        <route edges="A1B2 B2A1 A1B4 B4A1"/>
    </vehicle>
    <vehicle id="75" type="bicycle" depart="249.00">
        <route edges="A1B2 B2A1 A1B4 B4B1"/>
    </vehicle>
    <vehicle id="76" type="bicycle" depart="255.00">
        <route edges="A1B1 B1A1 A1B3"/>
    </vehicle>
    <vehicle id="77" type="bicycle" depart="260.00">
        <route edges="B4A1 A1B4 B4B3"/>
    </vehicle>
    <vehicle id="78" type="bicycle" depart="262.00">
        <route edges="A1B2 B2B3 B3B4"/>
    </vehicle>
    <vehicle id="79" type="bicycle" depart="263.00">
        <route edges="B1A1 A1B2 B2B3"/>
    </vehicle>
    <vehicle id="80" type="bicycle" depart="267.00">
        <route edges="B1B4 B4A1 A1B2"/>
    </vehicle>
    <vehicle id="81" type="bicycle" depart="271.00">
        <route edges="B1B2 B2B3 B3A1"/>
    </vehicle>
    <vehicle id="82" type="bicycle" depart="276.00">
        <route edges="B2B1 B1B4 B4B3"/>
    </vehicle>
    <vehicle id="83" type="bicycle" depart="278.00">
        <route edges="B3A1 A1B4 B4B1"/>
    </vehicle>
    <vehicle id="84" type="bicycle" depart="280.00">
        <route edges="B2A1 A1B2 B2B1"/>
    </vehicle>
    <vehicle id="85" type="bicycle" depart="281.00">
        <route edges="B2B3 B3A1 A1B4"/>
    </vehicle>
    <vehicle id="86" type="bicycle" depart="281.00">
        <route edges="B3A1 A1B1 B1A1"/>
    </vehicle>
    <vehicle id="87" type="bicycle" depart="282.00">
        <route edges="A1B4 B4A1 A1B2"/>
    </vehicle>
    <vehicle id="88" type="bicycle" depart="283.00">
        <route edges="B4B3 B3B4"/>
    </vehicle>
    <vehicle id="89" type="bicycle" depart="284.00">
        <route edges="B3B2 B2A1 A1B2"/>
    </vehicle>
    <vehicle id="90" type="bicycle" depart="284.00">
        <route edges="A1B3 B3A1 A1B1 B1A1"/>
    </vehicle>
    <vehicle id="91" type="bicycle" depart="286.00">
        <route edges="A1B1 B1B2"/>
    </vehicle>
    <vehicle id="92" type="bicycle" depart="290.00">
        <route edges="A1B1 B1B2"/>
    </vehicle>
    <vehicle id="93" type="bicycle" depart="290.00">
        <route edges="B1B4 B4A1 A1B4"/>
    </vehicle>
    <vehicle id="94" type="bicycle" depart="292.00">
        <route edges="B1B4 B4B3 B3A1"/>
    </vehicle>
    <vehicle id="95" type="bicycle" depart="297.00">
        <route edges="A1B3"/>
    </vehicle>
    <vehicle id="96" type="bicycle" depart="298.00">
        <route edges="B2B3 B3A1 A1B1 B1B4"/>
    </vehicle>
    <vehicle id="97" type="bicycle" depart="300.00">
        <route edges="B3A1 A1B2 B2A1"/>
    </vehicle>
    <vehicle id="98" type="bicycle" depart="303.00">
        <route edges="B2B3 B3A1 A1B4"/>
    </vehicle>
    <vehicle id="99" type="bicycle" depart="308.00">
        <route edges="B3A1 A1B2 B2A1"/>
    </vehicle>
    <vehicle id="100" type="bicycle" depart="308.00">
        <route edges="B3A1 A1B4 B4B1"/>
    </vehicle>
    <vehicle id="101" type="bicycle" depart="311.00">
        <route edges="B2A1 A1B1 B1A1"/>
    </vehicle>
    <vehicle id="102" type="bicycle" depart="317.00">
        <route edges="B2B1 B1A1 A1B2"/>
    </vehicle>
    <vehicle id="103" type="bicycle" depart="322.00">
        <route edges="B4B3"/>
    </vehicle>
    <vehicle id="104" type="bicycle" depart="322.00">
        <route edges="B1A1 A1B4 B4B3"/>
    </vehicle>
    <vehicle id="105" type="bicycle" depart="326.00">
        <route edges="B3B2 B2A1"/>
    </vehicle>
    <vehicle id="106" type="bicycle" depart="328.00">
        <route edges="B1A1 A1B4 B4B3"/>
    </vehicle>
    <vehicle id="107" type="bicycle" depart="330.00">
        <route edges="B4A1 A1B2"/>
    </vehicle>
    <vehicle id="108" type="bicycle" depart="332.00">
        <route edges="B1B4 B4B1 B1B2"/>
    </vehicle>
    <vehicle id="109" type="bicycle" depart="335.00">
        <route edges="B1A1 A1B3 B3B2"/>
    </vehicle>
    <vehicle id="110" type="bicycle" depart="335.00">
        <route edges="A1B1 B1B4 B4A1"/>
    </vehicle>
    <vehicle id="111" type="bicycle" depart="343.00">
        <route edges="B1B4 B4A1 A1B1"/>
    </vehicle>
    <vehicle id="112" type="bicycle" depart="347.00">
        <route edges="B4A1 A1B3 B3B4"/>
    </vehicle>
    <vehicle id="113" type="bicycle" depart="348.00">
        <route edges="B4B3 B3B4 B4B1"/>
    </vehicle>
    <vehicle id="114" type="bicycle" depart="350.00">
        <route edges="B3B2 B2A1 A1B4 B4A1"/>
    </vehicle>
    <vehicle id="115" type="bicycle" depart="350.00">
        <route edges="B4B1 B1A1 A1B3 B3B4"/>
    </vehicle>
    <vehicle id="116" type="bicycle" depart="354.00">
        <route edges="A1B4 B4B3 B3B4"/>
    </vehicle>
    <vehicle id="117" type="bicycle" depart="356.00">
        <route edges="A1B4"/>
    </vehicle>
    <vehicle id="118" type="bicycle" depart="372.00">
        <route edges="B1A1 A1B3 B3B4"/>
    </vehicle>
    <vehicle id="119" type="bicycle" depart="378.00">
        <route edges="B3B4 B4B3 B3A1"/>
    </vehicle>
    <vehicle id="120" type="bicycle" depart="379.00">
        <route edges="A1B3 B3A1 A1B2"/>
    </vehicle>
    <vehicle id="121" type="bicycle" depart="381.00">
        <route edges="B3A1 A1B1"/>
    </vehicle>
    <vehicle id="122" type="bicycle" depart="382.00">
        <route edges="B3B4 B4A1 A1B1"/>
    </vehicle>
    <vehicle id="123" type="bicycle" depart="382.00">
        <route edges="B1B2 B2A1 A1B3"/>
    </vehicle>
    <vehicle id="124" type="bicycle" depart="383.00">
        <route edges="B4B1 B1B2"/>
    </vehicle>
    <vehicle id="125" type="bicycle" depart="386.00">
        <route edges="B1B4 B4A1 A1B4"/>
    </vehicle>
    <vehicle id="126" type="bicycle" depart="396.00">
        <route edges="B3B4 B4B1"/>
    </vehicle>
    <vehicle id="127" type="bicycle" depart="397.00">
        <route edges="B1B2 B2B1"/>
    </vehicle>
    <vehicle id="128" type="bicycle" depart="401.00">
        <route edges="B1A1 A1B3"/>
    </vehicle>
    <vehicle id="129" type="bicycle" depart="403.00">
        <route edges="B4B1 B1B4 B4B3"/>
    </vehicle>
    <vehicle id="130" type="bicycle" depart="406.00">
        <route edges="B4B3 B3A1 A1B1 B1A1"/>
    </vehicle>
    <vehicle id="131" type="bicycle" depart="409.00">
        <route edges="B4A1 A1B3 B3B4"/>
    </vehicle>
    <vehicle id="132" type="bicycle" depart="411.00">
        <route edges="B2A1 A1B2"/>
    </vehicle>
    <vehicle id="133" type="bicycle" depart="413.00">
        <route edges="B3B4 B4A1 A1B4"/>
    </vehicle>
    <vehicle id="134" type="bicycle" depart="417.00">
        <route edges="B3A1"/>
    </vehicle>
    <vehicle id="135" type="bicycle" depart="418.00">
        <route edges="B1B4 B4A1"/>
    </vehicle>
    <vehicle id="136" type="bicycle" depart="419.00">
        <route edges="B2B1 B1A1 A1B2"/>
    </vehicle>
    <vehicle id="137" type="bicycle" depart="420.00">
        <route edges="B1B4 B4B1 B1A1"/>
    </vehicle>
    <vehicle id="138" type="bicycle" depart="421.00">
        <route edges="A1B2 B2B1 B1B2"/>
    </vehicle>
    <vehicle id="139" type="bicycle" depart="424.00">
        <route edges="B3B2 B2B1 B1A1"/>
    </vehicle>
    <vehicle id="140" type="bicycle" depart="432.00">
        <route edges="B1B4 B4B3 B3A1"/>
    </vehicle>
    <vehicle id="141" type="bicycle" depart="435.00">
        <route edges="B1B2 B2B3 B3A1"/>
    </vehicle>
    <vehicle id="142" type="bicycle" depart="436.00">
        <route edges="B2A1 A1B2 B2B3"/>
    </vehicle>
    <vehicle id="143" type="bicycle" depart="438.00">
        <route edges="B4B3 B3A1 A1B1 B1B2"/>
    </vehicle>
    <vehicle id="144" type="bicycle" depart="442.00">
        <route edges="B2B3 B3A1"/>
    </vehicle>
    <vehicle id="145" type="bicycle" depart="442.00">
        <route edges="B3A1 A1B2 B2A1"/>
    </vehicle>
    <vehicle id="146" type="bicycle" depart="444.00">
        <route edges="B3B2 B2B3 B3A1"/>
    </vehicle>
    <vehicle id="147" type="bicycle" depart="447.00">
        <route edges="A1B2 B2A1 A1B1"/>
    </vehicle>
    <vehicle id="148" type="bicycle" depart="449.00">
        <route edges="A1B1 B1B4 B4B3"/>
    </vehicle>
    <vehicle id="149" type="bicycle" depart="456.00">
        <route edges="A1B2 B2A1 A1B4"/>
    </vehicle>
    <vehicle id="150" type="bicycle" depart="456.00">
        <route edges="B2B1 B1B4"/>
    </vehicle>
    <vehicle id="151" type="bicycle" depart="458.00">
        <route edges="B1B2 B2A1 A1B4 B4B3"/>
    </vehicle>
    <vehicle id="152" type="bicycle" depart="458.00">
        <route edges="B3B2 B2B1"/>
    </vehicle>
    <vehicle id="153" type="bicycle" depart="467.00">
        <route edges="B2B3 B3B2"/>
    </vehicle>
    <vehicle id="154" type="bicycle" depart="468.00">
        <route edges="B4B1 B1A1 A1B3 B3A1"/>
    </vehicle>
    <vehicle id="155" type="bicycle" depart="469.00">
        <route edges="B4A1 A1B2 B2B3"/>
    </vehicle>
    <vehicle id="156" type="bicycle" depart="469.00">
        <route edges="B4B3 B3A1 A1B1 B1A1"/>
    </vehicle>
    <vehicle id="157" type="bicycle" depart="472.00">
        <route edges="B3B2 B2A1 A1B4"/>
    </vehicle>
    <vehicle id="158" type="bicycle" depart="472.00">
        <route edges="B2A1 A1B4"/>
    </vehicle>
    <vehicle id="159" type="bicycle" depart="473.00">
        <route edges="B1B2 B2A1 A1B4 B4B3"/>
    </vehicle>
    <vehicle id="160" type="bicycle" depart="485.00">
        <route edges="B1B2 B2A1 A1B4 B4B1"/>
    </vehicle>
    <vehicle id="161" type="bicycle" depart="489.00">
        <route edges="B3A1 A1B1"/>
    </vehicle>
    <vehicle id="162" type="bicycle" depart="491.00">
        <route edges="B1A1 A1B4 B4B3"/>
    </vehicle>
    <vehicle id="163" type="bicycle" depart="494.00">
        <route edges="B4B3 B3B4 B4A1"/>
    </vehicle>
    <vehicle id="164" type="bicycle" depart="495.00">
        <route edges="A1B2 B2A1 A1B4"/>
    </vehicle>
    <vehicle id="165" type="bicycle" depart="495.00">
        <route edges="B3A1 A1B4 B4B3"/>
    </vehicle>
    <vehicle id="166" type="bicycle" depart="497.00">
        <route edges="A1B1 B1B2"/>
    </vehicle>
    <vehicle id="167" type="bicycle" depart="510.00">
        <route edges="B4B3 B3B4"/>
    </vehicle>
    <vehicle id="168" type="bicycle" depart="511.00">
        <route edges="A1B4 B4A1"/>
    </vehicle>
    <vehicle id="169" type="bicycle" depart="515.00">
        <route edges="B2B1 B1B2 B2B3"/>
    </vehicle>
    <vehicle id="170" type="bicycle" depart="517.00">
        <route edges="B4A1 A1B4"/>
    </vehicle>
    <vehicle id="171" type="bicycle" depart="517.00">
        <route edges="B3B4"/>
    </vehicle>
    <vehicle id="172" type="bicycle" depart="518.00">
        <route edges="B2B3 B3A1 A1B1 B1A1"/>
    </vehicle>
    <vehicle id="173" type="bicycle" depart="521.00">
        <route edges="B4B3"/>
    </vehicle>
    <vehicle id="174" type="bicycle" depart="522.00">
        <route edges="B2B1 B1A1 A1B3 B3B4"/>
    </vehicle>
    <vehicle id="175" type="bicycle" depart="522.00">
        <route edges="A1B2 B2A1 A1B4 B4A1"/>
    </vehicle>
    <vehicle id="176" type="bicycle" depart="525.00">
        <route edges="A1B3 B3A1 A1B1 B1B2"/>
    </vehicle>
    <vehicle id="177" type="bicycle" depart="535.00">
        <route edges="B3B4 B4A1 A1B2 B2B3"/>
    </vehicle>
    <vehicle id="178" type="bicycle" depart="536.00">
        <route edges="A1B1 B1A1"/>
    </vehicle>
    <vehicle id="179" type="bicycle" depart="541.00">
        <route edges="A1B3 B3A1 A1B1 B1B4"/>
    </vehicle>
    <vehicle id="180" type="bicycle" depart="542.00">
        <route edges="A1B2"/>
    </vehicle>
    <vehicle id="181" type="bicycle" depart="546.00">
        <route edges="B2A1 A1B1 B1B2"/>
    </vehicle>
    <vehicle id="182" type="bicycle" depart="550.00">
        <route edges="B2B3 B3B2 B2A1"/>
    </vehicle>
    <vehicle id="183" type="bicycle" depart="555.00">
        <route edges="A1B4 B4A1 A1B2 B2B3"/>
    </vehicle>
    <vehicle id="184" type="bicycle" depart="566.00">
        <route edges="B3B2 B2A1 A1B4 B4B1"/>
    </vehicle>
    <vehicle id="185" type="bicycle" depart="566.00">
        <route edges="B3A1 A1B1 B1A1"/>
    </vehicle>
    <vehicle id="186" type="bicycle" depart="571.00">
        <route edges="B3A1 A1B1"/>
    </vehicle>
    <vehicle id="187" type="bicycle" depart="571.00">
        <route edges="B4B3 B3B4 B4A1"/>
    </vehicle>
    <vehicle id="188" type="bicycle" depart="574.00">
        <route edges="B1B4 B4A1 A1B2"/>
    </vehicle>
    <vehicle id="189" type="bicycle" depart="585.00">
        <route edges="B3B2 B2A1"/>
    </vehicle>
    <vehicle id="190" type="bicycle" depart="603.00">
        <route edges="B4B1 B1B2"/>
    </vehicle>
    <vehicle id="191" type="bicycle" depart="604.00">
        <route edges="A1B3"/>
    </vehicle>
    <vehicle id="192" type="bicycle" depart="606.00">
        <route edges="B2B3"/>
    </vehicle>
    <vehicle id="193" type="bicycle" depart="610.00">
        <route edges="B3B2 B2B1 B1B4"/>
    </vehicle>
    <vehicle id="194" type="bicycle" depart="611.00">
        <route edges="B2B3 B3A1 A1B1 B1A1"/>
    </vehicle>
    <vehicle id="195" type="bicycle" depart="617.00">
        <route edges="B2B1 B1B4"/>
    </vehicle>
    <vehicle id="196" type="bicycle" depart="621.00">
        <route edges="B3B4 B4A1 A1B2"/>
    </vehicle>
    <vehicle id="197" type="bicycle" depart="624.00">
        <route edges="B3A1 A1B4 B4B1"/>
    </vehicle>
    <vehicle id="198" type="bicycle" depart="625.00">
        <route edges="B2B1 B1B4 B4A1"/>
    </vehicle>
    <vehicle id="199" type="bicycle" depart="626.00">
        <route edges="B1B4 B4B1"/>
    </vehicle>
    <vehicle id="200" type="bicycle" depart="626.00">
        <route edges="B1B4 B4A1"/>
    </vehicle>
    <vehicle id="201" type="bicycle" depart="626.00">
        <route edges="B1B4 B4B3 B3B2"/>
    </vehicle>
    <vehicle id="202" type="bicycle" depart="633.00">
        <route edges="B1B2"/>
    </vehicle>
    <vehicle id="203" type="bicycle" depart="634.00">
        <route edges="B1A1 A1B4 B4B3"/>
    </vehicle>
    <vehicle id="204" type="bicycle" depart="636.00">
        <route edges="B3A1 A1B2 B2A1"/>
    </vehicle>
    <vehicle id="205" type="bicycle" depart="636.00">
        <route edges="A1B2"/>
    </vehicle>
    <vehicle id="206" type="bicycle" depart="643.00">
        <route edges="B1B4 B4B3 B3B2"/>
    </vehicle>
    <vehicle id="207" type="bicycle" depart="644.00">
        <route edges="B1B2 B2A1 A1B3"/>
    </vehicle>
    <vehicle id="208" type="bicycle" depart="646.00">
        <route edges="A1B1 B1B4 B4B3"/>
    </vehicle>
    <vehicle id="209" type="bicycle" depart="647.00">
        <route edges="B2B1 B1A1 A1B3 B3A1"/>
    </vehicle>
    <vehicle id="210" type="bicycle" depart="651.00">
        <route edges="B1B4 B4A1"/>
    </vehicle>
    <vehicle id="211" type="bicycle" depart="652.00">
        <route edges="B4B3 B3A1 A1B1 B1B4"/>
    </vehicle>
    <vehicle id="212" type="bicycle" depart="653.00">
        <route edges="B4B1 B1A1 A1B1"/>
    </vehicle>
    <vehicle id="213" type="bicycle" depart="655.00">
        <route edges="B1A1"/>
    </vehicle>
    <vehicle id="214" type="bicycle" depart="661.00">
        <route edges="A1B2 B2B1"/>
    </vehicle>
    <vehicle id="215" type="bicycle" depart="661.00">
        <route edges="A1B3 B3B2 B2A1"/>
    </vehicle>
    <vehicle id="216" type="bicycle" depart="665.00">
        <route edges="B4A1 A1B1 B1B2"/>
    </vehicle>
    <vehicle id="217" type="bicycle" depart="666.00">
        <route edges="B2B1 B1A1 A1B2"/>
    </vehicle>
    <vehicle id="218" type="bicycle" depart="669.00">
        <route edges="B1A1 A1B4"/>
    </vehicle>
    <vehicle id="219" type="bicycle" depart="670.00">
        <route edges="B1B4 B4A1 A1B2 B2B1"/>
    </vehicle>
    <vehicle id="220" type="bicycle" depart="674.00">
        <route edges="B3B4 B4A1 A1B2 B2B3"/>
    </vehicle>
    <vehicle id="221" type="bicycle" depart="676.00">
        <route edges="B3A1 A1B2 B2B1"/>
    </vehicle>
    <vehicle id="222" type="bicycle" depart="676.00">
        <route edges="B2B3 B3A1"/>
    </vehicle>
    <vehicle id="223" type="bicycle" depart="681.00">
        <route edges="B3B2 B2A1 A1B1"/>
    </vehicle>
    <vehicle id="224" type="bicycle" depart="687.00">
        <route edges="B1A1 A1B3 B3B4"/>
    </vehicle>
    <vehicle id="225" type="bicycle" depart="695.00">
        <route edges="B4B1 B1B2"/>
    </vehicle>
    <vehicle id="226" type="bicycle" depart="700.00">
        <route edges="A1B3"/>
    </vehicle>
    <vehicle id="227" type="bicycle" depart="712.00">
        <route edges="B3A1 A1B2"/>
    </vehicle>
    <vehicle id="228" type="bicycle" depart="720.00">
        <route edges="B3B2 B2A1 A1B4 B4B3"/>
    </vehicle>
    <vehicle id="229" type="bicycle" depart="721.00">
        <route edges="A1B2 B2B1"/>
    </vehicle>
    <vehicle id="230" type="bicycle" depart="725.00">
        <route edges="B1B4 B4A1 A1B2 B2A1"/>
    </vehicle>
    <vehicle id="231" type="bicycle" depart="731.00">
        <route edges="A1B3 B3A1 A1B1 B1A1"/>
    </vehicle>
    <vehicle id="232" type="bicycle" depart="731.00">
        <route edges="B1B2 B2A1 A1B4 B4B3"/>
    </vehicle>
    <vehicle id="233" type="bicycle" depart="734.00">
        <route edges="B2B3 B3B4 B4B1"/>
    </vehicle>
    <vehicle id="234" type="bicycle" depart="734.00">
        <route edges="A1B3 B3B4"/>
    </vehicle>
    <vehicle id="235" type="bicycle" depart="744.00">
        <route edges="A1B1 B1A1 A1B2"/>
    </vehicle>
    <vehicle id="236" type="bicycle" depart="744.00">
        <route edges="B2A1 A1B1 B1B4"/>
    </vehicle>
    <vehicle id="237" type="bicycle" depart="751.00">
        <route edges="B2B3 B3A1 A1B1 B1B4"/>
    </vehicle>
    <vehicle id="238" type="bicycle" depart="755.00">
        <route edges="A1B4 B4A1 A1B2 B2B1"/>
    </vehicle>
    <vehicle id="239" type="bicycle" depart="758.00">
        <route edges="B1B2 B2A1 A1B2"/>
    </vehicle>
    <vehicle id="240" type="bicycle" depart="761.00">
        <route edges="B3A1 A1B2 B2B3"/>
    </vehicle>
    <vehicle id="241" type="bicycle" depart="777.00">
        <route edges="B2B1 B1A1"/>
    </vehicle>
    <vehicle id="242" type="bicycle" depart="778.00">
        <route edges="A1B4 B4B3"/>
    </vehicle>
    <vehicle id="243" type="bicycle" depart="779.00">
        <route edges="A1B1 B1A1 A1B4"/>
    </vehicle>
    <vehicle id="244" type="bicycle" depart="779.00">
        <route edges="B4B3 B3B4"/>
    </vehicle>
    <vehicle id="245" type="bicycle" depart="782.00">
        <route edges="B3B4 B4B1 B1A1"/>
    </vehicle>
    <vehicle id="246" type="bicycle" depart="784.00">
        <route edges="A1B2 B2A1"/>
    </vehicle>
    <vehicle id="247" type="bicycle" depart="784.00">
        <route edges="B1B4 B4A1 A1B3"/>
    </vehicle>
    <vehicle id="248" type="bicycle" depart="785.00">
        <route edges="B2B1 B1A1 A1B4"/>
    </vehicle>
    <vehicle id="249" type="bicycle" depart="787.00">
        <route edges="B2B1 B1A1 A1B3 B3A1"/>
    </vehicle>
    <vehicle id="250" type="bicycle" depart="788.00">
        <route edges="B1B2 B2B1 B1B4"/>
    </vehicle>
    <vehicle id="251" type="bicycle" depart="791.00">
        <route edges="B3B2 B2B1 B1B4"/>
    </vehicle>
    <vehicle id="252" type="bicycle" depart="795.00">
        <route edges="B2A1 A1B2"/>
    </vehicle>
    <vehicle id="253" type="bicycle" depart="796.00">
        <route edges="B1B2 B2B1 B1B4"/>
    </vehicle>
    <vehicle id="254" type="bicycle" depart="807.00">
        <route edges="B1B4 B4B3 B3A1"/>
    </vehicle>
    <vehicle id="255" type="bicycle" depart="812.00">
        <route edges="B1A1 A1B1 B1B4"/>
    </vehicle>
    <vehicle id="256" type="bicycle" depart="814.00">
        <route edges="B4B3 B3A1 A1B3"/>
    </vehicle>
    <vehicle id="257" type="bicycle" depart="814.00">
        <route edges="B4B3 B3B2 B2A1"/>
    </vehicle>
    <vehicle id="258" type="bicycle" depart="815.00">
        <route edges="B3B2 B2B1 B1B2"/>
    </vehicle>
    <vehicle id="259" type="bicycle" depart="816.00">
        <route edges="B1B4 B4A1 A1B2"/>
    </vehicle>
    <vehicle id="260" type="bicycle" depart="817.00">
        <route edges="B1B4"/>
    </vehicle>
    <vehicle id="261" type="bicycle" depart="823.00">
        <route edges="A1B2 B2A1 A1B4 B4A1"/>
    </vehicle>
    <vehicle id="262" type="bicycle" depart="833.00">
        <route edges="B3B2 B2A1 A1B4"/>
    </vehicle>
    <vehicle id="263" type="bicycle" depart="836.00">
        <route edges="B3B4 B4A1 A1B2"/>
    </vehicle>
    <vehicle id="264" type="bicycle" depart="847.00">
        <route edges="B3A1 A1B2 B2B1"/>
    </vehicle>
    <vehicle id="265" type="bicycle" depart="851.00">
        <route edges="A1B4 B4B3 B3B4"/>
    </vehicle>
    <vehicle id="266" type="bicycle" depart="858.00">
        <route edges="B1B2 B2A1 A1B4 B4B3"/>