<?xml version="1.0" encoding="UTF-8"?>

<!-- generated on 2023-07-17 14:17:06.201597 by randomTrips.py v1_17_0+0000-737931d58
<configuration>
    <net-file value="network.net.xml"/>
    <output-trip-file value="network_bicycles.trips.xml"/>
    <route-file value="network_bicycles.rou.xml"/>
    <random-depart value="True"/>
    <vehicle-class value="bicycle"/>
    <period value="3.0"/>
</configuration>
-->

<routes xmlns:xsi="http://www.w3.org/2001/XMLSchema-instance" xsi:noNamespaceSchemaLocation="http://sumo.dlr.de/xsd/routes_file.xsd">
    <vType id="bicycle" vClass="bicycle"/>
    <trip id="0" depart="1.00" from="A1B4" to="B2B1" type="bicycle"/>
    <trip id="1" depart="2.00" from="A1B3" to="B1B4" type="bicycle"/>
    <trip id="2" depart="6.00" from="B3B2" to="B2A1" type="bicycle"/>
    <trip id="3" depart="8.00" from="A1B1" to="B1A1" type="bicycle"/>
    <trip id="4" depart="13.00" from="B1A1" to="B4A1" type="bicycle"/>
    <trip id="5" depart="14.00" from="A1B2" to="A1B4" type="bicycle"/>
    <trip id="6" depart="22.00" from="B1A1" to="B3B4" type="bicycle"/>
    <trip id="7" depart="24.00" from="B2B3" to="B3B4" type="bicycle"/>
    <trip id="8" depart="26.00" from="A1B4" to="A1B2" type="bicycle"/>
    <trip id="9" depart="29.00" from="A1B4" to="A1B3" type="bicycle"/>
    <trip id="10" depart="32.00" from="B1A1" to="A1B3" type="bicycle"/>
    <trip id="11" depart="38.00" from="A1B1" to="B3B4" type="bicycle"/>
    <trip id="12" depart="39.00" from="B2B3" to="B4A1" type="bicycle"/>
    <trip id="13" depart="41.00" from="B4B1" to="B2A1" type="bicycle"/>
    <trip id="14" depart="47.00" from="B2A1" to="B1A1" type="bicycle"/>
    <trip id="15" depart="50.00" from="B1B4" to="B1A1" type="bicycle"/>
    <trip id="16" depart="51.00" from="B2B1" to="B2A1" type="bicycle"/>
    <trip id="17" depart="57.00" from="B2B3" to="B4B1" type="bicycle"/>
    <trip id="18" depart="60.00" from="B3B2" to="B2B3" type="bicycle"/>
    <trip id="19" depart="70.00" from="A1B1" to="A1B4" type="bicycle"/>
    <trip id="20" depart="79.00" from="B3A1" to="B4A1" type="bicycle"/>
    <trip id="21" depart="79.00" from="B2B3" to="A1B1" type="bicycle"/>
    <trip id="22" depart="80.00" from="B3B4" to="B4A1" type="bicycle"/>
    <trip id="23" depart="83.00" from="B2B3" to="B3B4" type="bicycle"/>
    <trip id="24" depart="86.00" from="A1B3" to="B2B1" type="bicycle"/>
    <trip id="25" depart="96.00" from="B2A1" to="B1A1" type="bicycle"/>
    <trip id="26" depart="100.00" from="B4B3" to="B1B4" type="bicycle"/>
    <trip id="27" depart="101.00" from="B4A1" to="B4B3" type="bicycle"/>
    <trip id="28" depart="102.00" from="B2A1" to="B1B4" type="bicycle"/>
    <trip id="29" depart="105.00" from="B1B2" to="A1B2" type="bicycle"/>
    <trip id="30" depart="108.00" from="A1B3" to="B1B4" type="bicycle"/>
    <trip id="31" depart="110.00" from="B2A1" to="B3A1" type="bicycle"/>
    <trip id="32" depart="111.00" from="B1B4" to="B3B4" type="bicycle"/>
    <trip id="33" depart="113.00" from="A1B1" to="A1B2" type="bicycle"/>
    <trip id="34" depart="117.00" from="B1A1" to="A1B2" type="bicycle"/>
    <trip id="35" depart="118.00" from="B3B4" to="B4A1" type="bicycle"/>
    <trip id="36" depart="122.00" from="B4A1" to="A1B1" type="bicycle"/>
    <trip id="37" depart="127.00" from="B4A1" to="B2A1" type="bicycle"/>
    <trip id="38" depart="128.00" from="A1B1" to="B2B1" type="bicycle"/>
    <trip id="39" depart="130.00" from="B2B3" to="B2A1" type="bicycle"/>
    <trip id="40" depart="131.00" from="B2A1" to="A1B1" type="bicycle"/>
    <trip id="41" depart="147.00" from="B1A1" to="A1B3" type="bicycle"/>
    <trip id="42" depart="156.00" from="B1A1" to="B4B1" type="bicycle"/>
    <trip id="43" depart="158.00" from="B2A1" to="A1B1" type="bicycle"/>
    <trip id="44" depart="162.00" from="B3A1" to="B3B4" type="bicycle"/>
    <trip id="45" depart="163.00" from="B3B2" to="B1A1" type="bicycle"/>
    <trip id="46" depart="164.00" from="A1B1" to="B1B4" type="bicycle"/>
    <trip id="47" depart="168.00" from="A1B4" to="B4A1" type="bicycle"/>
    <trip id="48" depart="171.00" from="A1B2" to="B4B3" type="bicycle"/>
    <trip id="49" depart="177.00" from="B3A1" to="A1B3" type="bicycle"/>
    <trip id="50" depart="180.00" from="B4B1" to="B1A1" type="bicycle"/>
    <trip id="51" depart="181.00" from="B3B2" to="B1B4" type="bicycle"/>
    <trip id="52" depart="186.00" from="B2A1" to="B2A1" type="bicycle"/>
    <trip id="53" depart="187.00" from="B2A1" to="A1B3" type="bicycle"/>
    <trip id="54" depart="189.00" from="A1B4" to="B2B3" type="bicycle"/>
    <trip id="55" depart="192.00" from="B3B2" to="A1B3" type="bicycle"/>
    <trip id="56" depart="205.00" from="A1B2" to="B3B4" type="bicycle"/>
    <trip id="57" depart="205.00" from="B4A1" to="B1B2" type="bicycle"/>
    <trip id="58" depart="205.00" from="B3B4" to="B1A1" type="bicycle"/>
    <trip id="59" depart="207.00" from="A1B1" to="B3B2" type="bicycle"/>
    <trip id="60" depart="208.00" from="B4A1" to="B2B3" type="bicycle"/>
    <trip id="61" depart="210.00" from="B3A1" to="B4A1" type="bicycle"/>
    <trip id="62" depart="213.00" from="B2A1" to="B2A1" type="bicycle"/>
    <trip id="63" depart="219.00" from="B1B2" to="B3B4" type="bicycle"/>
    <trip id="64" depart="221.00" from="B1B4" to="B4B1" type="bicycle"/>
    <trip id="65" depart="223.00" from="B4A1" to="B4B3" type="bicycle"/>
    <trip id="66" depart="229.00" from="A1B4" to="B1B4" type="bicycle"/>
    <trip id="67" depart="232.00" from="B4A1" to="B1B4" type="bicycle"/>
    <trip id="68" depart="234.00" from="B1B2" to="B2A1" type="bicycle"/>
    <trip id="69" depart="237.00" from="B4B1" to="B1B4" type="bicycle"/>
    <trip id="70" depart="239.00" from="B4B3" to="B3B4" type="bicycle"/>
    <trip id="71" depart="240.00" from="B3A1" to="A1B3" type="bicycle"/>
    <trip id="72" depart="241.00" from="B4B3" to="A1B3" type="bicycle"/>
    <trip id="73" depart="246.00" from="B4B3" to="B1B2" type="bicycle"/>
    <trip id="74" depart="248.00" from="A1B2" to="B4A1" type="bicycle"/>
    <trip id="75" depart="249.00" from="A1B2" to="B4B1" type="bicycle"/>
    <trip id="76" depart="255.00" from="A1B1" to="A1B3" type="bicycle"/>
    <trip id="77" depart="260.00" from="B4A1" to="B4B3" type="bicycle"/>
    <trip id="78" depart="262.00" from="A1B2" to="B3B4" type="bicycle"/>
    <trip id="79" depart="263.00" from="B1A1" to="B2B3" type="bicycle"/>
    <trip id="80" depart="267.00" from="B1B4" to="A1B2" type="bicycle"/>
    <trip id="81" depart="271.00" from="B1B2" to="B3A1" type="bicycle"/>
    <trip id="82" depart="276.00" from="B2B1" to="B4B3" type="bicycle"/>
    <trip id="83" depart="278.00" from="B3A1" to="B4B1" type="bicycle"/>
    <trip id="84" depart="280.00" from="B2A1" to="B2B1" type="bicycle"/>
    <trip id="85" depart="281.00" from="B2B3" to="A1B4" type="bicycle"/>
    <trip id="86" depart="281.00" from="B3A1" to="B1A1" type="bicycle"/>
    <trip id="87" depart="282.00" from="A1B4" to="A1B2" type="bicycle"/>
    <trip id="88" depart="283.00" from="B4B3" to="B3B4" type="bicycle"/>
    <trip id="89" depart="284.00" from="B3B2" to="A1B2" type="bicycle"/>
    <trip id="90" depart="284.00" from="A1B3" to="B1A1" type="bicycle"/>
    <trip id="91" depart="286.00" from="A1B1" to="B1B2" type="bicycle"/>
    <trip id="92" depart="290.00" from="A1B1" to="B1B2" type="bicycle"/>
    <trip id="93" depart="290.00" from="B1B4" to="A1B4" type="bicycle"/>
    <trip id="94" depart="292.00" from="B1B4" to="B3A1" type="bicycle"/>
    <trip id="95" depart="297.00" from="A1B3" to="A1B3" type="bicycle"/>
    <trip id="96" depart="298.00" from="B2B3" to="B1B4" type="bicycle"/>
    <trip id="97" depart="300.00" from="B3A1" to="B2A1" type="bicycle"/>
    <trip id="98" depart="303.00" from="B2B3" to="A1B4" type="bicycle"/>
    <trip id="99" depart="308.00" from="B3A1" to="B2A1" type="bicycle"/>
    <trip id="100" depart="308.00" from="B3A1" to="B4B1" type="bicycle"/>
    <trip id="101" depart="311.00" from="B2A1" to="B1A1" type="bicycle"/>
    <trip id="102" depart="317.00" from="B2B1" to="A1B2" type="bicycle"/>
    <trip id="103" depart="322.00" from="B4B3" to="B4B3" type="bicycle"/>
    <trip id="104" depart="322.00" from="B1A1" to="B4B3" type="bicycle"/>
    <trip id="105" depart="326.00" from="B3B2" to="B2A1" type="bicycle"/>
    <trip id="106" depart="328.00" from="B1A1" to="B4B3" type="bicycle"/>
    <trip id="107" depart="330.00" from="B4A1" to="A1B2" type="bicycle"/>
    <trip id="108" depart="332.00" from="B1B4" to="B1B2" type="bicycle"/>
    <trip id="109" depart="335.00" from="B1A1" to="B3B2" type="bicycle"/>
    <trip id="110" depart="335.00" from="A1B1" to="B4A1" type="bicycle"/>
    <trip id="111" depart="343.00" from="B1B4" to="A1B1" type="bicycle"/>
    <trip id="112" depart="347.00" from="B4A1" to="B3B4" type="bicycle"/>
    <trip id="113" depart="348.00" from="B4B3" to="B4B1" type="bicycle"/>
    <trip id="114" depart="350.00" from="B3B2" to="B4A1" type="bicycle"/>
    <trip id="115" depart="350.00" from="B4B1" to="B3B4" type="bicycle"/>
    <trip id="116" depart="354.00" from="A1B4" to="B3B4" type="bicycle"/>
    <trip id="117" depart="356.00" from="A1B4" to="A1B4" type="bicycle"/>
    <trip id="118" depart="372.00" from="B1A1" to="B3B4" type="bicycle"/>
    <trip id="119" depart="378.00" from="B3B4" to="B3A1" type="bicycle"/>
    <trip id="120" depart="379.00" from="A1B3" to="A1B2" type="bicycle"/>
    <trip id="121" depart="381.00" from="B3A1" to="A1B1" type="bicycle"/>
    <trip id="122" depart="382.00" from="B3B4" to="A1B1" type="bicycle"/>
    <trip id="123" depart="382.00" from="B1B2" to="A1B3" type="bicycle"/>
    <trip id="124" depart="383.00" from="B4B1" to="B1B2" type="bicycle"/>
    <trip id="125" depart="386.00" from="B1B4" to="A1B4" type="bicycle"/>
    <trip id="126" depart="396.00" from="B3B4" to="B4B1" type="bicycle"/>
    <trip id="127" depart="397.00" from="B1B2" to="B2B1" type="bicycle"/>
    <trip id="128" depart="401.00" from="B1A1" to="A1B3" type="bicycle"/>
    <trip id="129" depart="403.00" from="B4B1" to="B4B3" type="bicycle"/>
    <trip id="130" depart="406.00" from="B4B3" to="B1A1" type="bicycle"/>
    <trip id="131" depart="409.00" from="B4A1" to="B3B4" type="bicycle"/>
    <trip id="132" depart="411.00" from="B2A1" to="A1B2" type="bicycle"/>
    <trip id="133" depart="413.00" from="B3B4" to="A1B4" type="bicycle"/>
    <trip id="134" depart="417.00" from="B3A1" to="B3A1" type="bicycle"/>
    <trip id="135" depart="418.00" from="B1B4" to="B4A1" type="bicycle"/>
    <trip id="136" depart="419.00" from="B2B1" to="A1B2" type="bicycle"/>
    <trip id="137" depart="420.00" from="B1B4" to="B1A1" type="bicycle"/>
    <trip id="138" depart="421.00" from="A1B2" to="B1B2" type="bicycle"/>
    <trip id="139" depart="424.00" from="B3B2" to="B1A1" type="bicycle"/>
    <trip id="140" depart="432.00" from="B1B4" to="B3A1" type="bicycle"/>
    <trip id="141" depart="435.00" from="B1B2" to="B3A1" type="bicycle"/>
    <trip id="142" depart="436.00" from="B2A1" to="B2B3" type="bicycle"/>
    <trip id="143" depart="438.00" from="B4B3" to="B1B2" type="bicycle"/>
    <trip id="144" depart="442.00" from="B2B3" to="B3A1" type="bicycle"/>
    <trip id="145" depart="442.00" from="B3A1" to="B2A1" type="bicycle"/>
    <trip id="146" depart="444.00" from="B3B2" to="B3A1" type="bicycle"/>
    <trip id="147" depart="447.00" from="A1B2" to="A1B1" type="bicycle"/>
    <trip id="148" depart="449.00" from="A1B1" to="B4B3" type="bicycle"/>
    <trip id="149" depart="456.00" from="A1B2" to="A1B4" type="bicycle"/>
    <trip id="150" depart="456.00" from="B2B1" to="B1B4" type="bicycle"/>
    <trip id="151" depart="458.00" from="B1B2" to="B4B3" type="bicycle"/>
    <trip id="152" depart="458.00" from="B3B2" to="B2B1" type="bicycle"/>
    <trip id="153" depart="467.00" from="B2B3" to="B3B2" type="bicycle"/>
    <trip id="154" depart="468.00" from="B4B1" to="B3A1" type="bicycle"/>
    <trip id="155" depart="469.00" from="B4A1" to="B2B3" type="bicycle"/>
    <trip id="156" depart="469.00" from="B4B3" to="B1A1" type="bicycle"/>
    <trip id="157" depart="472.00" from="B3B2" to="A1B4" type="bicycle"/>
    <trip id="158" depart="472.00" from="B2A1" to="A1B4" type="bicycle"/>
    <trip id="159" depart="473.00" from="B1B2" to="B4B3" type="bicycle"/>
    <trip id="160" depart="485.00" from="B1B2" to="B4B1" type="bicycle"/>
    <trip id="161" depart="489.00" from="B3A1" to="A1B1" type="bicycle"/>
    <trip id="162" depart="491.00" from="B1A1" to="B4B3" type="bicycle"/>
    <trip id="163" depart="494.00" from="B4B3" to="B4A1" type="bicycle"/>
    <trip id="164" depart="495.00" from="A1B2" to="A1B4" type="bicycle"/>
    <trip id="165" depart="495.00" from="B3A1" to="B4B3" type="bicycle"/>
    <trip id="166" depart="497.00" from="A1B1" to="B1B2" type="bicycle"/>
    <trip id="167" depart="510.00" from="B4B3" to="B3B4" type="bicycle"/>
    <trip id="168" depart="511.00" from="A1B4" to="B4A1" type="bicycle"/>
    <trip id="169" depart="515.00" from="B2B1" to="B2B3" type="bicycle"/>
    <trip id="170" depart="517.00" from="B4A1" to="A1B4" type="bicycle"/>
    <trip id="171" depart="517.00" from="B3B4" to="B3B4" type="bicycle"/>
    <trip id="172" depart="518.00" from="B2B3" to="B1A1" type="bicycle"/>
    <trip id="173" depart="521.00" from="B4B3" to="B4B3" type="bicycle"/>
    <trip id="174" depart="522.00" from="B2B1" to="B3B4" type="bicycle"/>
    <trip id="175" depart="522.00" from="A1B2" to="B4A1" type="bicycle"/>
    <trip id="176" depart="525.00" from="A1B3" to="B1B2" type="bicycle"/>
    <trip id="177" depart="535.00" from="B3B4" to="B2B3" type="bicycle"/>
    <trip id="178" depart="536.00" from="A1B1" to="B1A1" type="bicycle"/>
    <trip id="179" depart="541.00" from="A1B3" to="B1B4" type="bicycle"/>
    <trip id="180" depart="542.00" from="A1B2" to="A1B2" type="bicycle"/>
    <trip id="181" depart="546.00" from="B2A1" to="B1B2" type="bicycle"/>
    <trip id="182" depart="550.00" from="B2B3" to="B2A1" type="bicycle"/>
    <trip id="183" depart="555.00" from="A1B4" to="B2B3" type="bicycle"/>
    <trip id="184" depart="566.00" from="B3B2" to="B4B1" type="bicycle"/>
    <trip id="185" depart="566.00" from="B3A1" to="B1A1" type="bicycle"/>
    <trip id="186" depart="571.00" from="B3A1" to="A1B1" type="bicycle"/>
    <trip id="187" depart="571.00" from="B4B3" to="B4A1" type="bicycle"/>
    <trip id="188" depart="574.00" from="B1B4" to="A1B2" type="bicycle"/>
    <trip id="189" depart="585.00" from="B3B2" to="B2A1" type="bicycle"/>
    <trip id="190" depart="603.00" from="B4B1" to="B1B2" type="bicycle"/>
    <trip id="191" depart="604.00" from="A1B3" to="A1B3" type="bicycle"/>
    <trip id="192" depart="606.00" from="B2B3" to="B2B3" type="bicycle"/>
    <trip id="193" depart="610.00" from="B3B2" to="B1B4" type="bicycle"/>
    <trip id="194" depart="611.00" from="B2B3" to="B1A1" type="bicycle"/>
    <trip id="195" depart="617.00" from="B2B1" to="B1B4" type="bicycle"/>
    <trip id="196" depart="621.00" from="B3B4" to="A1B2" type="bicycle"/>
    <trip id="197" depart="624.00" from="B3A1" to="B4B1" type="bicycle"/>
    <trip id="198" depart="625.00" from="B2B1" to="B4A1" type="bicycle"/>
    <trip id="199" depart="626.00" from="B1B4" to="B4B1" type="bicycle"/>
    <trip id="200" depart="626.00" from="B1B4" to="B4A1" type="bicycle"/>
    <trip id="201" depart="626.00" from="B1B4" to="B3B2" type="bicycle"/>
    <trip id="202" depart="633.00" from="B1B2" to="B1B2" type="bicycle"/>
    <trip id="203" depart="634.00" from="B1A1" to="B4B3" type="bicycle"/>
    <trip id="204" depart="636.00" from="B3A1" to="B2A1" type="bicycle"/>
    <trip id="205" depart="636.00" from="A1B2" to="A1B2" type="bicycle"/>
    <trip id="206" depart="643.00" from="B1B4" to="B3B2" type="bicycle"/>
    <trip id="207" depart="644.00" from="B1B2" to="A1B3" type="bicycle"/>
    <trip id="208" depart="646.00" from="A1B1" to="B4B3" type="bicycle"/>
    <trip id="209" depart="647.00" from="B2B1" to="B3A1" type="bicycle"/>
    <trip id="210" depart="651.00" from="B1B4" to="B4A1" type="bicycle"/>
    <trip id="211" depart="652.00" from="B4B3" to="B1B4" type="bicycle"/>
    <trip id="212" depart="653.00" from="B4B1" to="A1B1" type="bicycle"/>
    <trip id="213" depart="655.00" from="B1A1" to="B1A1" type="bicycle"/>
    <trip id="214" depart="661.00" from="A1B2" to="B2B1" type="bicycle"/>
    <trip id="215" depart="661.00" from="A1B3" to="B2A1" type="bicycle"/>
    <trip id="216" depart="665.00" from="B4A1" to="B1B2" type="bicycle"/>
    <trip id="217" depart="666.00" from="B2B1" to="A1B2" type="bicycle"/>
    <trip id="218" depart="669.00" from="B1A1" to="A1B4" type="bicycle"/>
    <trip id="219" depart="670.00" from="B1B4" to="B2B1" type="bicycle"/>
    <trip id="220" depart="674.00" from="B3B4" to="B2B3" type="bicycle"/>
    <trip id="221" depart="676.00" from="B3A1" to="B2B1" type="bicycle"/>
    <trip id="222" depart="676.00" from="B2B3" to="B3A1" type="bicycle"/>
    <trip id="223" depart="681.00" from="B3B2" to="A1B1" type="bicycle"/>
    <trip id="224" depart="687.00" from="B1A1" to="B3B4" type="bicycle"/>
    <trip id="225" depart="695.00" from="B4B1" to="B1B2" type="bicycle"/>
    <trip id="226" depart="700.00" from="A1B3" to="A1B3" type="bicycle"/>
    <trip id="227" depart="712.00" from="B3A1" to="A1B2" type="bicycle"/>
    <trip id="228" depart="720.00" from="B3B2" to="B4B3" type="bicycle"/>
    <trip id="229" depart="721.00" from="A1B2" to="B2B1" type="bicycle"/>
    <trip id="230" depart="725.00" from="B1B4" to="B2A1" type="bicycle"/>
    <trip id="231" depart="731.00" from="A1B3" to="B1A1" type="bicycle"/>
    <trip id="232" depart="731.00" from="B1B2" to="B4B3" type="bicycle"/>
    <trip id="233" depart="734.00" from="B2B3" to="B4B1" type="bicycle"/>
    <trip id="234" depart="734.00" from="A1B3" to="B3B4" type="bicycle"/>
    <trip id="235" depart="744.00" from="A1B1" to="A1B2" type="bicycle"/>
    <trip id="236" depart="744.00" from="B2A1" to="B1B4" type="bicycle"/>
    <trip id="237" depart="751.00" from="B2B3" to="B1B4" type="bicycle"/>
    <trip id="238" depart="755.00" from="A1B4" to="B2B1" type="bicycle"/>
    <trip id="239" depart="758.00" from="B1B2" to="A1B2" type="bicycle"/>
    <trip id="240" depart="761.00" from="B3A1" to="B2B3" type="bicycle"/>
    <trip id="241" depart="777.00" from="B2B1" to="B1A1" type="bicycle"/>
    <trip id="242" depart="778.00" from="A1B4" to="B4B3" type="bicycle"/>
    <trip id="243" depart="779.00" from="A1B1" to="A1B4" type="bicycle"/>
    <trip id="244" depart="779.00" from="B4B3" to="B3B4" type="bicycle"/>
    <trip id="245" depart="782.00" from="B3B4" to="B1A1" type="bicycle"/>
    <trip id="246" depart="784.00" from="A1B2" to="B2A1" type="bicycle"/>
    <trip id="247" depart="784.00" from="B1B4" to="A1B3" type="bicycle"/>
    <trip id="248" depart="785.00" from="B2B1" to="A1B4" type="bicycle"/>
    <trip id="249" depart="787.00" from="B2B1" to="B3A1" type="bicycle"/>
    <trip id="250" depart="788.00" from="B1B2" to="B1B4" type="bicycle"/>
    <trip id="251" depart="791.00" from="B3B2" to="B1B4" type="bicycle"/>
    <trip id="252" depart="795.00" from="B2A1" to="A1B2" type="bicycle"/>
    <trip id="253" depart="796.00" from="B1B2" to="B1B4" type="bicycle"/>
    <trip id="254" depart="807.00" from="B1B4" to="B3A1" type="bicycle"/>
    <trip id="255" depart="812.00" from="B1A1" to="B1B4" type="bicycle"/>
    <trip id="256" depart="814.00" from="B4B3" to="A1B3" type="bicycle"/>
    <trip id="257" depart="814.00" from="B4B3" to="B2A1" type="bicycle"/>
    <trip id="258" depart="815.00" from="B3B2" to="B1B2" type="bicycle"/>
    <trip id="259" depart="816.00" from="B1B4" to="A1B2" type="bicycle"/>
    <trip id="260" depart="817.00" from="B1B4" to="B1B4" type="bicycle"/>
    <trip id="261" depart="823.00" from="A1B2" to="B4A1" type="bicycle"/>
    <trip id="262" depart="833.00" from="B3B2" to="A1B4" type="bicycle"/>
    <trip id="263" depart="836.00" from="B3B4" to="A1B2" type="bicycle"/>
    <trip id="264" depart="847.00" from="B3A1" to="B2B1" type="bicycle"/>
    <trip id="265" depart="851.00" from="A1B4" to="B3B4" type="bicycle"/>
    <trip id="266" depart="858.00" from="B1B2" to="B4B3" type="bicycle"/>
    <trip id="267" depart="860.00" from="B3A1" to="A1B3" type="bicycle"/>
    <trip id="268" depart="860.00" from="A1B2" to="B1A1" type="bicycle"/>
    <trip id="269" depart="862.00" from="A1B3" to="A1B3" type="bicycle"/>
    <trip id="270" depart="864.00" from="B3B4" to="A1B2" type="bicycle"/>
    <trip id="271" depart="864.00" from="B4B3" to="B3A1" type="bicycle"/>
    <trip id="272" depart="866.00" from="B2A1" to="B2B3" type="bicycle"/>
    <trip id="273" depart="867.00" from="B2B3" to="B3A1" type="bicycle"/>
    <trip id="274" depart="868.00" from="B4B1" to="B3A1" type="bicycle"/>
    <trip id="275" depart="870.00" from="B4B3" to="B1B2" type="bicycle"/>
    <trip id="276" depart="873.00" from="B4B3" to="B1B2" type="bicycle"/>
    <trip id="277" depart="875.00" from="B2A1" to="B2A1" type="bicycle"/>
    <trip id="278" depart="875.00" from="B3A1" to="B3B4" type="bicycle"/>
    <trip id="279" depart="876.00" from="B2B3" to="B1B2" type="bicycle"/>
    <trip id="280" depart="877.00" from="A1B2" to="B2A1" type="bicycle"/>
    <trip id="281" depart="881.00" from="A1B1" to="B1B2" type="bicycle"/>
    <trip id="282" depart="886.00" from="B1A1" to="B3A1" type="bicycle"/>
    <trip id="283" depart="891.00" from="B4B3" to="A1B2" type="bicycle"/>
    <trip id="284" depart="892.00" from="B2B3" to="B1B4" type="bicycle"/>
    <trip id="285" depart="895.00" from="B2B3" to="B4B3" type="bicycle"/>
    <trip id="286" depart="896.00" from="B3B2" to="A1B1" type="bicycle"/>
    <trip id="287" depart="898.00" from="B4B1" to="B2B3" type="bicycle"/>
    <trip id="288" depart="898.00" from="A1B4" to="B2B3" type="bicycle"/>
    <trip id="289" depart="899.00" from="B2B1" to="B4B3" type="bicycle"/>
    <trip id="290" depart="902.00" from="B2A1" to="B3B4" type="bicycle"/>
    <trip id="291" depart="902.00" from="B4A1" to="B4B3" type="bicycle"/>
    <trip id="292" depart="903.00" from="A1B2" to="B3A1" type="bicycle"/>
    <trip id="293" depart="907.00" from="A1B1" to="B3B2" type="bicycle"/>
    <trip id="294" depart="911.00" from="B4B3" to="B2B1" type="bicycle"/>
    <trip id="295" depart="913.00" from="B2B3" to="B1B2" type="bicycle"/>
    <trip id="296" depart="914.00" from="B4B1" to="B1B4" type="bicycle"/>
    <trip id="297" depart="918.00" from="B3B4" to="B3A1" type="bicycle"/>
    <trip id="298" depart="920.00" from="A1B1" to="B3A1" type="bicycle"/>
    <trip id="299" depart="920.00" from="B1B2" to="B1B2" type="bicycle"/>
    <trip id="300" depart="924.00" from="B2B1" to="B1B4" type="bicycle"/>
    <trip id="301" depart="931.00" from="B1A1" to="B4A1" type="bicycle"/>
    <trip id="302" depart="932.00" from="B4B3" to="B2B3" type="bicycle"/>
    <trip id="303" depart="933.00" from="A1B3" to="A1B2" type="bicycle"/>
    <trip id="304" depart="937.00" from="B3A1" to="B4B1" type="bicycle"/>
    <trip id="305" depart="938.00" from="B1A1" to="B3A1" type="bicycle"/>
    <trip id="306" depart="942.00" from="B3A1" to="A1B3" type="bicycle"/>
    <trip id="307" depart="944.00" from="B3B2" to="A1B2" type="bicycle"/>
    <trip id="308" depart="947.00" from="B2B1" to="B3A1" type="bicycle"/>
    <trip id="309" depart="952.00" from="B1B2" to="A1B3" type="bicycle"/>
    <trip id="310" depart="953.00" from="B3B2" to="B4B3" type="bicycle"/>
    <trip id="311" depart="960.00" from="B4B3" to="B4B1" type="bicycle"/>
    <trip id="312" depart="962.00" from="A1B2" to="B3A1" type="bicycle"/>
    <trip id="313" depart="963.00" from="B2B1" to="A1B1" type="bicycle"/>
    <trip id="314" depart="968.00" from="B1A1" to="B4B3" type="bicycle"/>
    <trip id="315" depart="969.00" from="B1B2" to="B3B4" type="bicycle"/>
    <trip id="316" depart="974.00" from="A1B4" to="B4B3" type="bicycle"/>
    <trip id="317" depart="977.00" from="A1B3" to="B1A1" type="bicycle"/>
    <trip id="318" depart="977.00" from="B3B4" to="B2B1" type="bicycle"/>
    <trip id="319" depart="979.00" from="B2B1" to="B3B2" type="bicycle"/>
    <trip id="320" depart="980.00" from="B2B1" to="B3A1" type="bicycle"/>
    <trip id="321" depart="984.00" from="B4B1" to="B2B3" type="bicycle"/>
    <trip id="322" depart="986.00" from="B2B3" to="A1B3" type="bicycle"/>
    <trip id="323" depart="988.00" from="A1B3" to="B3B2" type="bicycle"/>
    <trip id="324" depart="994.00" from="B2B3" to="B4B1" type="bicycle"/>
    <trip id="325" depart="995.00" from="B3B2" to="A1B1" type="bicycle"/>
    <trip id="326" depart="996.00" from="B1B2" to="B3B2" type="bicycle"/>
    <trip id="327" depart="998.00" from="B4B3" to="B2B3" type="bicycle"/>
    <trip id="328" depart="999.00" from="B3B4" to="B3B4" type="bicycle"/>
    <trip id="329" depart="1000.00" from="A1B4" to="A1B4" type="bicycle"/>
    <trip id="330" depart="1002.00" from="B4B3" to="B3B4" type="bicycle"/>
    <trip id="331" depart="1002.00" from="B4B1" to="A1B4" type="bicycle"/>
    <trip id="332" depart="1003.00" from="B3A1" to="B2B3" type="bicycle"/>
    <trip id="333" depart="1005.00" from="B2A1" to="B3B4" type="bicycle"/>
    <trip id="334" depart="1008.00" from="B3B4" to="B2B1" type="bicycle"/>
    <trip id="335" depart="1010.00" from="B1B4" to="A1B3" type="bicycle"/>
    <trip id="336" depart="1012.00" from="A1B4" to="B2B3" type="bicycle"/>
    <trip id="337" depart="1012.00" from="B4A1" to="A1B1" type="bicycle"/>
    <trip id="338" depart="1015.00" from="B2A1" to="B1B2" type="bicycle"/>
    <trip id="339" depart="1016.00" from="B4B1" to="B3B2" type="bicycle"/>
    <trip id="340" depart="1016.00" from="B2B1" to="A1B2" type="bicycle"/>
    <trip id="341" depart="1018.00" from="A1B2" to="A1B3" type="bicycle"/>
    <trip id="342" depart="1020.00" from="B2A1" to="B2B1" type="bicycle"/>
    <trip id="343" depart="1022.00" from="B4A1" to="A1B2" type="bicycle"/>
    <trip id="344" depart="1023.00" from="B4B1" to="B4A1" type="bicycle"/>
    <trip id="345" depart="1028.00" from="B4B1" to="B4B1" type="bicycle"/>
    <trip id="346" depart="1029.00" from="B1B4" to="B1B4" type="bicycle"/>
    <trip id="347" depart="1029.00" from="B1B2" to="B1B4" type="bicycle"/>
    <trip id="348" depart="1033.00" from="A1B2" to="A1B4" type="bicycle"/>
    <trip id="349" depart="1034.00" from="B1B2" to="A1B2" type="bicycle"/>
    <trip id="350" depart="1043.00" from="B3B2" to="B1B2" type="bicycle"/>
    <trip id="351" depart="1049.00" from="A1B3" to="A1B1" type="bicycle"/>
    <trip id="352" depart="1058.00" from="B4B1" to="B2A1" type="bicycle"/>
    <trip id="353" depart="1061.00" from="B4A1" to="B3B4" type="bicycle"/>
    <trip id="354" depart="1065.00" from="B2A1" to="B2B3" type="bicycle"/>
    <trip id="355" depart="1068.00" from="B4B1" to="A1B1" type="bicycle"/>
    <trip id="356" depart="1069.00" from="A1B4" to="A1B3" type="bicycle"/>
    <trip id="357" depart="1072.00" from="B4B3" to="B2B3" type="bicycle"/>
    <trip id="358" depart="1076.00" from="B1B4" to="B3B4" type="bicycle"/>
    <trip id="359" depart="1078.00" from="A1B4" to="A1B2" type="bicycle"/>
    <trip id="360" depart="1081.00" from="A1B4" to="B3A1" type="bicycle"/>
    <trip id="361" depart="1083.00" from="B2B3" to="A1B2" type="bicycle"/>
    <trip id="362" depart="1083.00" from="B4A1" to="B2A1" type="bicycle"/>
    <trip id="363" depart="1083.00" from="B2B1" to="B3A1" type="bicycle"/>
    <trip id="364" depart="1084.00" from="B2B3" to="B3B2" type="bicycle"/>
    <trip id="365" depart="1085.00" from="B1A1" to="A1B1" type="bicycle"/>
    <trip id="366" depart="1086.00" from="B1B2" to="B2B3" type="bicycle"/>
    <trip id="367" depart="1086.00" from="A1B3" to="B3A1" type="bicycle"/>
    <trip id="368" depart="1087.00" from="B2B1" to="B1B2" type="bicycle"/>
    <trip id="369" depart="1087.00" from="B4B3" to="B2B1" type="bicycle"/>
    <trip id="370" depart="1092.00" from="B3B4" to="B2B1" type="bicycle"/>
    <trip id="371" depart="1092.00" from="A1B1" to="B4A1" type="bicycle"/>
    <trip id="372" depart="1093.00" from="A1B1" to="B1B4" type="bicycle"/>
    <trip id="373" depart="1096.00" from="B1B2" to="B3B2" type="bicycle"/>
    <trip id="374" depart="1099.00" from="B1B2" to="A1B2" type="bicycle"/>
    <trip id="375" depart="1105.00" from="A1B4" to="B3A1" type="bicycle"/>
    <trip id="376" depart="1106.00" from="A1B2" to="B2B3" type="bicycle"/>
    <trip id="377" depart="1109.00" from="B3B4" to="A1B3" type="bicycle"/>
    <trip id="378" depart="1112.00" from="B1B2" to="B1B2" type="bicycle"/>
    <trip id="379" depart="1115.00" from="B3A1" to="B4A1" type="bicycle"/>
    <trip id="380" depart="1117.00" from="B3A1" to="B4B3" type="bicycle"/>
    <trip id="381" depart="1123.00" from="B2A1" to="A1B3" type="bicycle"/>
    <trip id="382" depart="1124.00" from="A1B3" to="B3B2" type="bicycle"/>
    <trip id="383" depart="1126.00" from="B4B3" to="A1B1" type="bicycle"/>
    <trip id="384" depart="1131.00" from="A1B4" to="B3B4" type="bicycle"/>
    <trip id="385" depart="1132.00" from="B4B1" to="B1B2" type="bicycle"/>
    <trip id="386" depart="1133.00" from="B1A1" to="B1B4" type="bicycle"/>
    <trip id="387" depart="1135.00" from="B4A1" to="B2A1" type="bicycle"/>
    <trip id="388" depart="1138.00" from="A1B1" to="B3A1" type="bicycle"/>
    <trip id="389" depart="1138.00" from="B1A1" to="B4A1" type="bicycle"/>
    <trip id="390" depart="1139.00" from="A1B1" to="B3A1" type="bicycle"/>
    <trip id="391" depart="1139.00" from="B1A1" to="B3B4" type="bicycle"/>
    <trip id="392" depart="1140.00" from="B1B4" to="B1B4" type="bicycle"/>
    <trip id="393" depart="1140.00" from="B2A1" to="B4B3" type="bicycle"/>
    <trip id="394" depart="1141.00" from="B1B2" to="A1B3" type="bicycle"/>
    <trip id="395" depart="1142.00" from="B3B2" to="B1B2" type="bicycle"/>
    <trip id="396" depart="1143.00" from="B3B4" to="B1A1" type="bicycle"/>
    <trip id="397" depart="1145.00" from="A1B2" to="B1B4" type="bicycle"/>