<?xml version="1.0" encoding="UTF-8"?>

<!-- generated on 2023-07-14 11:53:05.443924 by randomTrips.py v1_17_0+0000-737931d58
<configuration>
    <net-file value="network.net.xml"/>
    <output-trip-file value="network.trip.xml"/>
    <route-file value="network.rou.xml"/>
    <random-depart value="True"/>
    <period value="3.0"/>
</configuration>
-->

<!-- generated on 2023-07-14 11:53:05 by Eclipse SUMO duarouter Version 1.17.0
<configuration xmlns:xsi="http://www.w3.org/2001/XMLSchema-instance" xsi:noNamespaceSchemaLocation="http://sumo.dlr.de/xsd/duarouterConfiguration.xsd">

    <input>
        <net-file value="network.net.xml"/>
        <route-files value="network.trip.xml"/>
    </input>

    <output>
        <output-file value="network.rou.xml"/>
        <alternatives-output value="NUL"/>
    </output>

    <time>
        <begin value="0"/>
        <end value="3600"/>
    </time>

    <report>
        <no-warnings value="true"/>
        <ignore-errors value="true"/>
        <no-step-log value="true"/>
    </report>

</configuration>
-->

<routes xmlns:xsi="http://www.w3.org/2001/XMLSchema-instance" xsi:noNamespaceSchemaLocation="http://sumo.dlr.de/xsd/routes_file.xsd">
    <vehicle id="0" depart="1.00">
        <route edges="A1B4 B4A1 A1B2 B2B1"/>
    </vehicle>
    <vehicle id="1" depart="2.00">
        <route edges="A1B3 B3A1 A1B1 B1B4"/>
    </vehicle>
    <vehicle id="2" depart="6.00">
        <route edges="B3B2 B2A1"/>
    </vehicle>
    <vehicle id="3" depart="8.00">
        <route edges="A1B1 B1A1"/>
    </vehicle>
    <vehicle id="4" depart="13.00">
        <route edges="B1A1 A1B4 B4A1"/>
    </vehicle>
    <vehicle id="5" depart="14.00">
        <route edges="A1B2 B2A1 A1B4"/>
    </vehicle>
    <vehicle id="6" depart="22.00">
        <route edges="B1A1 A1B3 B3B4"/>
    </vehicle>
    <vehicle id="7" depart="24.00">
        <route edges="B2B3 B3B4"/>
    </vehicle>
    <vehicle id="8" depart="26.00">
        <route edges="A1B4 B4A1 A1B2"/>
    </vehicle>
    <vehicle id="9" depart="29.00">
        <route edges="A1B4 B4A1 A1B3"/>
    </vehicle>
    <vehicle id="10" depart="32.00">
        <route edges="B1A1 A1B3"/>
    </vehicle>
    <vehicle id="11" depart="38.00">
        <route edges="A1B1 B1A1 A1B3 B3B4"/>
    </vehicle>
    <vehicle id="12" depart="39.00">
        <route edges="B2B3 B3B4 B4A1"/>
    </vehicle>
    <vehicle id="13" depart="41.00">
        <route edges="B4B1 B1B2 B2A1"/>
    </vehicle>
    <vehicle id="14" depart="47.00">
        <route edges="B2A1 A1B1 B1A1"/>
    </vehicle>
    <vehicle id="15" depart="50.00">
        <route edges="B1B4 B4A1 A1B1 B1A1"/>
    </vehicle>
    <vehicle id="16" depart="51.00">
        <route edges="B2B1 B1A1 A1B2 B2A1"/>
    </vehicle>
    <vehicle id="17" depart="57.00">
        <route edges="B2B3 B3B4 B4B1"/>
    </vehicle>
    <vehicle id="18" depart="60.00">
        <route edges="B3B2 B2B3"/>
    </vehicle>
    <vehicle id="19" depart="70.00">
        <route edges="A1B1 B1A1 A1B4"/>
    </vehicle>
    <vehicle id="20" depart="79.00">
        <route edges="B3A1 A1B4 B4A1"/>
    </vehicle>
    <vehicle id="21" depart="79.00">
        <route edges="B2B3 B3A1 A1B1"/>
    </vehicle>
    <vehicle id="22" depart="80.00">
        <route edges="B3B4 B4A1"/>
    </vehicle>
    <vehicle id="23" depart="83.00">
        <route edges="B2B3 B3B4"/>
    </vehicle>
    <vehicle id="24" depart="86.00">
        <route edges="A1B3 B3B2 B2B1"/>
    </vehicle>
    <vehicle id="25" depart="96.00">
        <route edges="B2A1 A1B1 B1A1"/>
    </vehicle>
    <vehicle id="26" depart="100.00">
        <route edges="B4B3 B3A1 A1B1 B1B4"/>
    </vehicle>
    <vehicle id="27" depart="101.00">
        <route edges="B4A1 A1B4 B4B3"/>
    </vehicle>
    <vehicle id="28" depart="102.00">
        <route edges="B2A1 A1B1 B1B4"/>
    </vehicle>
    <vehicle id="29" depart="105.00">
        <route edges="B1B2 B2A1 A1B2"/>
    </vehicle>
    <vehicle id="30" depart="108.00">
        <route edges="A1B3 B3A1 A1B1 B1B4"/>
    </vehicle>
    <vehicle id="31" depart="110.00">
        <route edges="B2A1 A1B3 B3A1"/>
    </vehicle>
    <vehicle id="32" depart="111.00">
        <route edges="B1B4 B4B3 B3B4"/>
    </vehicle>
    <vehicle id="33" depart="113.00">
        <route edges="A1B1 B1A1 A1B2"/>
    </vehicle>
    <vehicle id="34" depart="117.00">
        <route edges="B1A1 A1B2"/>
    </vehicle>
    <vehicle id="35" depart="118.00">
        <route edges="B3B4 B4A1"/>
    </vehicle>
    <vehicle id="36" depart="122.00">
        <route edges="B4A1 A1B1"/>
    </vehicle>
    <vehicle id="37" depart="127.00">
        <route edges="B4A1 A1B2 B2A1"/>
    </vehicle>
    <vehicle id="38" depart="128.00">
        <route edges="A1B1 B1B2 B2B1"/>
    </vehicle>
    <vehicle id="39" depart="130.00">
        <route edges="B2B3 B3B2 B2A1"/>
    </vehicle>
    <vehicle id="40" depart="131.00">
        <route edges="B2A1 A1B1"/>
    </vehicle>
    <vehicle id="41" depart="147.00">
        <route edges="B1A1 A1B3"/>
    </vehicle>
    <vehicle id="42" depart="156.00">
        <route edges="B1A1 A1B4 B4B1"/>
    </vehicle>
    <vehicle id="43" depart="158.00">
        <route edges="B2A1 A1B1"/>
    </vehicle>
    <vehicle id="44" depart="162.00">
        <route edges="B3A1 A1B3 B3B4"/>
    </vehicle>
    <vehicle id="45" depart="163.00">
        <route edges="B3B2 B2B1 B1A1"/>
    </vehicle>
    <vehicle id="46" depart="164.00">
        <route edges="A1B1 B1B4"/>
    </vehicle>
    <vehicle id="47" depart="168.00">
        <route edges="A1B4 B4A1"/>
    </vehicle>
    <vehicle id="48" depart="171.00">
        <route edges="A1B2 B2A1 A1B4 B4B3"/>
    </vehicle>
    <vehicle id="49" depart="177.00">
        <route edges="B3A1 A1B3"/>
    </vehicle>
    <vehicle id="50" depart="180.00">
        <route edges="B4B1 B1A1"/>
    </vehicle>
    <vehicle id="51" depart="181.00">
        <route edges="B3B2 B2B1 B1B4"/>
    </vehicle>
    <vehicle id="52" depart="186.00">
        <route edges="B2A1"/>
    </vehicle>
    <vehicle id="53" depart="187.00">
        <route edges="B2A1 A1B3"/>
    </vehicle>
    <vehicle id="54" depart="189.00">
        <route edges="A1B4 B4A1 A1B2 B2B3"/>
    </vehicle>
    <vehicle id="55" depart="192.00">
        <route edges="B3B2 B2A1 A1B3"/>
    </vehicle>
    <vehicle id="56" depart="205.00">
        <route edges="A1B2 B2B3 B3B4"/>
    </vehicle>
    <vehicle id="57" depart="205.00">
        <route edges="B4A1 A1B1 B1B2"/>
    </vehicle>
    <vehicle id="58" depart="205.00">
        <route edges="B3B4 B4B1 B1A1"/>
    </vehicle>
    <vehicle id="59" depart="207.00">
        <route edges="A1B1 B1A1 A1B3 B3B2"/>
    </vehicle>
    <vehicle id="60" depart="208.00">
        <route edges="B4A1 A1B2 B2B3"/>
    </vehicle>
    <vehicle id="61" depart="210.00">
        <route edges="B3A1 A1B4 B4A1"/>
    </vehicle>
    <vehicle id="62" depart="213.00">
        <route edges="B2A1"/>
    </vehicle>
    <vehicle id="63" depart="219.00">
        <route edges="B1B2 B2B3 B3B4"/>
    </vehicle>
    <vehicle id="64" depart="221.00">
        <route edges="B1B4 B4B1"/>
    </vehicle>
    <vehicle id="65" depart="223.00">
        <route edges="B4A1 A1B4 B4B3"/>
    </vehicle>
    <vehicle id="66" depart="229.00">
        <route edges="A1B4 B4B1 B1B4"/>
    </vehicle>
    <vehicle id="67" depart="232.00">
        <route edges="B4A1 A1B1 B1B4"/>
    </vehicle>
    <vehicle id="68" depart="234.00">
        <route edges="B1B2 B2A1"/>
    </vehicle>
    <vehicle id="69" depart="237.00">
        <route edges="B4B1 B1B4"/>
    </vehicle>
    <vehicle id="70" depart="239.00">
        <route edges="B4B3 B3B4"/>
    </vehicle>
    <vehicle id="71" depart="240.00">
        <route edges="B3A1 A1B3"/>
    </vehicle>
    <vehicle id="72" depart="241.00">
        <route edges="B4B3 B3A1 A1B3"/>
    </vehicle>
    <vehicle id="73" depart="246.00">
        <route edges="B4B3 B3A1 A1B1 B1B2"/>
    </vehicle>
    <vehicle id="74" depart="248.00">
        <route edges="A1B2 B2A1 A1B4 B4A1"/>
    </vehicle>
    <vehicle id="75" depart="249.00">
        <route edges="A1B2 B2A1 A1B4 B4B1"/>
    </vehicle>
    <vehicle id="76" depart="255.00">
        <route edges="A1B1 B1A1 A1B3"/>
    </vehicle>
    <vehicle id="77" depart="260.00">
        <route edges="B4A1 A1B4 B4B3"/>
    </vehicle>
    <vehicle id="78" depart="262.00">
        <route edges="A1B2 B2B3 B3B4"/>
    </vehicle>
    <vehicle id="79" depart="263.00">
        <route edges="B1A1 A1B2 B2B3"/>
    </vehicle>
    <vehicle id="80" depart="267.00">
        <route edges="B1B4 B4A1 A1B2"/>
    </vehicle>
    <vehicle id="81" depart="271.00">
        <route edges="B1B2 B2B3 B3A1"/>
    </vehicle>
    <vehicle id="82" depart="276.00">
        <route edges="B2B1 B1B4 B4B3"/>
    </vehicle>
    <vehicle id="83" depart="278.00">
        <route edges="B3A1 A1B4 B4B1"/>
    </vehicle>
    <vehicle id="84" depart="280.00">
        <route edges="B2A1 A1B2 B2B1"/>
    </vehicle>
    <vehicle id="85" depart="281.00">
        <route edges="B2B3 B3A1 A1B4"/>
    </vehicle>
    <vehicle id="86" depart="281.00">
        <route edges="B3A1 A1B1 B1A1"/>
    </vehicle>
    <vehicle id="87" depart="282.00">
        <route edges="A1B4 B4A1 A1B2"/>
    </vehicle>
    <vehicle id="88" depart="283.00">
        <route edges="B4B3 B3B4"/>
    </vehicle>
    <vehicle id="89" depart="284.00">
        <route edges="B3B2 B2A1 A1B2"/>
    </vehicle>
    <vehicle id="90" depart="284.00">
        <route edges="A1B3 B3A1 A1B1 B1A1"/>
    </vehicle>
    <vehicle id="91" depart="286.00">
        <route edges="A1B1 B1B2"/>
    </vehicle>
    <vehicle id="92" depart="290.00">
        <route edges="A1B1 B1B2"/>
    </vehicle>
    <vehicle id="93" depart="290.00">
        <route edges="B1B4 B4A1 A1B4"/>
    </vehicle>
    <vehicle id="94" depart="292.00">
        <route edges="B1B4 B4B3 B3A1"/>
    </vehicle>
    <vehicle id="95" depart="297.00">
        <route edges="A1B3"/>
    </vehicle>
    <vehicle id="96" depart="298.00">
        <route edges="B2B3 B3A1 A1B1 B1B4"/>
    </vehicle>
    <vehicle id="97" depart="300.00">
        <route edges="B3A1 A1B2 B2A1"/>
    </vehicle>
    <vehicle id="98" depart="303.00">
        <route edges="B2B3 B3A1 A1B4"/>
    </vehicle>
    <vehicle id="99" depart="308.00">
        <route edges="B3A1 A1B2 B2A1"/>
    </vehicle>
    <vehicle id="100" depart="308.00">
        <route edges="B3A1 A1B4 B4B1"/>
    </vehicle>
    <vehicle id="101" depart="311.00">
        <route edges="B2A1 A1B1 B1A1"/>
    </vehicle>
    <vehicle id="102" depart="317.00">
        <route edges="B2B1 B1A1 A1B2"/>
    </vehicle>
    <vehicle id="103" depart="322.00">
        <route edges="B4B3"/>
    </vehicle>
    <vehicle id="104" depart="322.00">
        <route edges="B1A1 A1B4 B4B3"/>
    </vehicle>
    <vehicle id="105" depart="326.00">
        <route edges="B3B2 B2A1"/>
    </vehicle>
    <vehicle id="106" depart="328.00">
        <route edges="B1A1 A1B4 B4B3"/>
    </vehicle>
    <vehicle id="107" depart="330.00">
        <route edges="B4A1 A1B2"/>
    </vehicle>
    <vehicle id="108" depart="332.00">
        <route edges="B1B4 B4B1 B1B2"/>
    </vehicle>
    <vehicle id="109" depart="335.00">
        <route edges="B1A1 A1B3 B3B2"/>
    </vehicle>
    <vehicle id="110" depart="335.00">
        <route edges="A1B1 B1B4 B4A1"/>
    </vehicle>
    <vehicle id="111" depart="343.00">
        <route edges="B1B4 B4A1 A1B1"/>
    </vehicle>
    <vehicle id="112" depart="347.00">
        <route edges="B4A1 A1B3 B3B4"/>
    </vehicle>
    <vehicle id="113" depart="348.00">
        <route edges="B4B3 B3B4 B4B1"/>
    </vehicle>
    <vehicle id="114" depart="350.00">
        <route edges="B3B2 B2A1 A1B4 B4A1"/>
    </vehicle>
    <vehicle id="115" depart="350.00">
        <route edges="B4B1 B1A1 A1B3 B3B4"/>
    </vehicle>
    <vehicle id="116" depart="354.00">
        <route edges="A1B4 B4B3 B3B4"/>
    </vehicle>
    <vehicle id="117" depart="356.00">
        <route edges="A1B4"/>
    </vehicle>
    <vehicle id="118" depart="372.00">
        <route edges="B1A1 A1B3 B3B4"/>
    </vehicle>
    <vehicle id="119" depart="378.00">
        <route edges="B3B4 B4B3 B3A1"/>
    </vehicle>
    <vehicle id="120" depart="379.00">
        <route edges="A1B3 B3A1 A1B2"/>
    </vehicle>
    <vehicle id="121" depart="381.00">
        <route edges="B3A1 A1B1"/>
    </vehicle>
    <vehicle id="122" depart="382.00">
        <route edges="B3B4 B4A1 A1B1"/>
    </vehicle>
    <vehicle id="123" depart="382.00">
        <route edges="B1B2 B2A1 A1B3"/>
    </vehicle>
    <vehicle id="124" depart="383.00">
        <route edges="B4B1 B1B2"/>
    </vehicle>
    <vehicle id="125" depart="386.00">
        <route edges="B1B4 B4A1 A1B4"/>
    </vehicle>
    <vehicle id="126" depart="396.00">
        <route edges="B3B4 B4B1"/>
    </vehicle>
    <vehicle id="127" depart="397.00">
        <route edges="B1B2 B2B1"/>
    </vehicle>
    <vehicle id="128" depart="401.00">
        <route edges="B1A1 A1B3"/>
    </vehicle>
    <vehicle id="129" depart="403.00">
        <route edges="B4B1 B1B4 B4B3"/>
    </vehicle>
    <vehicle id="130" depart="406.00">
        <route edges="B4B3 B3A1 A1B1 B1A1"/>
    </vehicle>
    <vehicle id="131" depart="409.00">
        <route edges="B4A1 A1B3 B3B4"/>
    </vehicle>
    <vehicle id="132" depart="411.00">
        <route edges="B2A1 A1B2"/>
    </vehicle>
    <vehicle id="133" depart="413.00">
        <route edges="B3B4 B4A1 A1B4"/>
    </vehicle>
    <vehicle id="134" depart="417.00">
        <route edges="B3A1"/>
    </vehicle>
    <vehicle id="135" depart="418.00">
        <route edges="B1B4 B4A1"/>
    </vehicle>
    <vehicle id="136" depart="419.00">
        <route edges="B2B1 B1A1 A1B2"/>
    </vehicle>
    <vehicle id="137" depart="420.00">
        <route edges="B1B4 B4A1 A1B1 B1A1"/>
    </vehicle>
    <vehicle id="138" depart="421.00">
        <route edges="A1B2 B2B1 B1B2"/>
    </vehicle>
    <vehicle id="139" depart="424.00">
        <route edges="B3B2 B2B1 B1A1"/>
    </vehicle>
    <vehicle id="140" depart="432.00">
        <route edges="B1B4 B4B3 B3A1"/>
    </vehicle>
    <vehicle id="141" depart="435.00">
        <route edges="B1B2 B2B3 B3A1"/>
    </vehicle>
    <vehicle id="142" depart="436.00">
        <route edges="B2A1 A1B2 B2B3"/>
    </vehicle>
    <vehicle id="143" depart="438.00">
        <route edges="B4B3 B3A1 A1B1 B1B2"/>
    </vehicle>
    <vehicle id="144" depart="442.00">
        <route edges="B2B3 B3A1"/>
    </vehicle>
    <vehicle id="145" depart="442.00">
        <route edges="B3A1 A1B2 B2A1"/>
    </vehicle>
    <vehicle id="146" depart="444.00">
        <route edges="B3B2 B2A1 A1B3 B3A1"/>
    </vehicle>
    <vehicle id="147" depart="447.00">
        <route edges="A1B2 B2A1 A1B1"/>
    </vehicle>
    <vehicle id="148" depart="449.00">
        <route edges="A1B1 B1B4 B4B3"/>
    </vehicle>
    <vehicle id="149" depart="456.00">
        <route edges="A1B2 B2A1 A1B4"/>
    </vehicle>
    <vehicle id="150" depart="456.00">
        <route edges="B2B1 B1B4"/>
    </vehicle>
    <vehicle id="151" depart="458.00">
        <route edges="B1B2 B2A1 A1B4 B4B3"/>
    </vehicle>
    <vehicle id="152" depart="458.00">
        <route edges="B3B2 B2B1"/>
    </vehicle>
    <vehicle id="153" depart="467.00">
        <route edges="B2B3 B3B2"/>
    </vehicle>
    <vehicle id="154" depart="468.00">
        <route edges="B4B1 B1A1 A1B3 B3A1"/>
    </vehicle>
    <vehicle id="155" depart="469.00">
        <route edges="B4A1 A1B2 B2B3"/>
    </vehicle>
    <vehicle id="156" depart="469.00">
        <route edges="B4B3 B3A1 A1B1 B1A1"/>
    </vehicle>
    <vehicle id="157" depart="472.00">
        <route edges="B3B2 B2A1 A1B4"/>
    </vehicle>
    <vehicle id="158" depart="472.00">
        <route edges="B2A1 A1B4"/>
    </vehicle>
    <vehicle id="159" depart="473.00">
        <route edges="B1B2 B2A1 A1B4 B4B3"/>
    </vehicle>
    <vehicle id="160" depart="485.00">
        <route edges="B1B2 B2A1 A1B4 B4B1"/>
    </vehicle>
    <vehicle id="161" depart="489.00">
        <route edges="B3A1 A1B1"/>
    </vehicle>
    <vehicle id="162" depart="491.00">
        <route edges="B1A1 A1B4 B4B3"/>
    </vehicle>
    <vehicle id="163" depart="494.00">
        <route edges="B4B3 B3A1 A1B4 B4A1"/>
    </vehicle>
    <vehicle id="164" depart="495.00">
        <route edges="A1B2 B2A1 A1B4"/>
    </vehicle>
    <vehicle id="165" depart="495.00">
        <route edges="B3A1 A1B4 B4B3"/>
    </vehicle>
    <vehicle id="166" depart="497.00">
        <route edges="A1B1 B1B2"/>
    </vehicle>
    <vehicle id="167" depart="510.00">
        <route edges="B4B3 B3B4"/>
    </vehicle>
    <vehicle id="168" depart="511.00">
        <route edges="A1B4 B4A1"/>
    </vehicle>
    <vehicle id="169" depart="515.00">
        <route edges="B2B1 B1B2 B2B3"/>
    </vehicle>
    <vehicle id="170" depart="517.00">
        <route edges="B4A1 A1B4"/>
    </vehicle>
    <vehicle id="171" depart="517.00">
        <route edges="B3B4"/>
    </vehicle>
    <vehicle id="172" depart="518.00">
        <route edges="B2B3 B3A1 A1B1 B1A1"/>
    </vehicle>
    <vehicle id="173" depart="521.00">
        <route edges="B4B3"/>
    </vehicle>
    <vehicle id="174" depart="522.00">
        <route edges="B2B1 B1A1 A1B3 B3B4"/>
    </vehicle>
    <vehicle id="175" depart="522.00">
        <route edges="A1B2 B2A1 A1B4 B4A1"/>
    </vehicle>
    <vehicle id="176" depart="525.00">
        <route edges="A1B3 B3A1 A1B1 B1B2"/>
    </vehicle>
    <vehicle id="177" depart="535.00">
        <route edges="B3B4 B4A1 A1B2 B2B3"/>
    </vehicle>
    <vehicle id="178" depart="536.00">
        <route edges="A1B1 B1A1"/>
    </vehicle>
    <vehicle id="179" depart="541.00">
        <route edges="A1B3 B3A1 A1B1 B1B4"/>
    </vehicle>
    <vehicle id="180" depart="542.00">
        <route edges="A1B2"/>
    </vehicle>
    <vehicle id="181" depart="546.00">
        <route edges="B2A1 A1B1 B1B2"/>
    </vehicle>
    <vehicle id="182" depart="550.00">
        <route edges="B2B3 B3B2 B2A1"/>
    </vehicle>
    <vehicle id="183" depart="555.00">
        <route edges="A1B4 B4A1 A1B2 B2B3"/>
    </vehicle>
    <vehicle id="184" depart="566.00">
        <route edges="B3B2 B2A1 A1B4 B4B1"/>
    </vehicle>
    <vehicle id="185" depart="566.00">
        <route edges="B3A1 A1B1 B1A1"/>
    </vehicle>
    <vehicle id="186" depart="571.00">
        <route edges="B3A1 A1B1"/>
    </vehicle>
    <vehicle id="187" depart="571.00">
        <route edges="B4B3 B3A1 A1B4 B4A1"/>
    </vehicle>
    <vehicle id="188" depart="574.00">
        <route edges="B1B4 B4A1 A1B2"/>
    </vehicle>
    <vehicle id="189" depart="585.00">
        <route edges="B3B2 B2A1"/>
    </vehicle>
    <vehicle id="190" depart="603.00">
        <route edges="B4B1 B1B2"/>
    </vehicle>
    <vehicle id="191" depart="604.00">
        <route edges="A1B3"/>
    </vehicle>
    <vehicle id="192" depart="606.00">
        <route edges="B2B3"/>
    </vehicle>
    <vehicle id="193" depart="610.00">
        <route edges="B3B2 B2B1 B1B4"/>
    </vehicle>
    <vehicle id="194" depart="611.00">
        <route edges="B2B3 B3A1 A1B1 B1A1"/>
    </vehicle>
    <vehicle id="195" depart="617.00">
        <route edges="B2B1 B1B4"/>
    </vehicle>
    <vehicle id="196" depart="621.00">
        <route edges="B3B4 B4A1 A1B2"/>
    </vehicle>
    <vehicle id="197" depart="624.00">
        <route edges="B3A1 A1B4 B4B1"/>
    </vehicle>
    <vehicle id="198" depart="625.00">
        <route edges="B2B1 B1B4 B4A1"/>
    </vehicle>
    <vehicle id="199" depart="626.00">
        <route edges="B1B4 B4B1"/>
    </vehicle>
    <vehicle id="200" depart="626.00">
        <route edges="B1B4 B4A1"/>
    </vehicle>
    <vehicle id="201" depart="626.00">
        <route edges="B1B4 B4B3 B3B2"/>
    </vehicle>
    <vehicle id="202" depart="633.00">
        <route edges="B1B2"/>
    </vehicle>
    <vehicle id="203" depart="634.00">
        <route edges="B1A1 A1B4 B4B3"/>
    </vehicle>
    <vehicle id="204" depart="636.00">
        <route edges="B3A1 A1B2 B2A1"/>
    </vehicle>
    <vehicle id="205" depart="636.00">
        <route edges="A1B2"/>
    </vehicle>
    <vehicle id="206" depart="643.00">
        <route edges="B1B4 B4B3 B3B2"/>
    </vehicle>
    <vehicle id="207" depart="644.00">
        <route edges="B1B2 B2A1 A1B3"/>
    </vehicle>
    <vehicle id="208" depart="646.00">
        <route edges="A1B1 B1B4 B4B3"/>
    </vehicle>
    <vehicle id="209" depart="647.00">
        <route edges="B2B1 B1A1 A1B3 B3A1"/>
    </vehicle>
    <vehicle id="210" depart="651.00">
        <route edges="B1B4 B4A1"/>
    </vehicle>
    <vehicle id="211" depart="652.00">
        <route edges="B4B3 B3A1 A1B1 B1B4"/>
    </vehicle>
    <vehicle id="212" depart="653.00">
        <route edges="B4B1 B1A1 A1B1"/>
    </vehicle>
    <vehicle id="213" depart="655.00">
        <route edges="B1A1"/>
    </vehicle>
    <vehicle id="214" depart="661.00">
        <route edges="A1B2 B2B1"/>
    </vehicle>
    <vehicle id="215" depart="661.00">
        <route edges="A1B3 B3B2 B2A1"/>
    </vehicle>
    <vehicle id="216" depart="665.00">
        <route edges="B4A1 A1B1 B1B2"/>
    </vehicle>
    <vehicle id="217" depart="666.00">
        <route edges="B2B1 B1A1 A1B2"/>
    </vehicle>
    <vehicle id="218" depart="669.00">
        <route edges="B1A1 A1B4"/>
    </vehicle>
    <vehicle id="219" depart="670.00">
        <route edges="B1B4 B4A1 A1B2 B2B1"/>
    </vehicle>
    <vehicle id="220" depart="674.00">
        <route edges="B3B4 B4A1 A1B2 B2B3"/>
    </vehicle>
    <vehicle id="221" depart="676.00">
        <route edges="B3A1 A1B2 B2B1"/>
    </vehicle>
    <vehicle id="222" depart="676.00">
        <route edges="B2B3 B3A1"/>
    </vehicle>
    <vehicle id="223" depart="681.00">
        <route edges="B3B2 B2A1 A1B1"/>
    </vehicle>
    <vehicle id="224" depart="687.00">
        <route edges="B1A1 A1B3 B3B4"/>
    </vehicle>
    <vehicle id="225" depart="695.00">
        <route edges="B4B1 B1B2"/>
    </vehicle>
    <vehicle id="226" depart="700.00">
        <route edges="A1B3"/>
    </vehicle>
    <vehicle id="227" depart="712.00">
        <route edges="B3A1 A1B2"/>
    </vehicle>
    <vehicle id="228" depart="720.00">
        <route edges="B3B2 B2A1 A1B4 B4B3"/>
    </vehicle>
    <vehicle id="229" depart="721.00">
        <route edges="A1B2 B2B1"/>
    </vehicle>
    <vehicle id="230" depart="725.00">
        <route edges="B1B4 B4A1 A1B2 B2A1"/>
    </vehicle>
    <vehicle id="231" depart="731.00">
        <route edges="A1B3 B3A1 A1B1 B1A1"/>
    </vehicle>
    <vehicle id="232" depart="731.00">
        <route edges="B1B2 B2A1 A1B4 B4B3"/>
    </vehicle>
    <vehicle id="233" depart="734.00">
        <route edges="B2B3 B3B4 B4B1"/>
    </vehicle>
    <vehicle id="234" depart="734.00">
        <route edges="A1B3 B3B4"/>
    </vehicle>
    <vehicle id="235" depart="744.00">
        <route edges="A1B1 B1A1 A1B2"/>
    </vehicle>
    <vehicle id="236" depart="744.00">
        <route edges="B2A1 A1B1 B1B4"/>
    </vehicle>
    <vehicle id="237" depart="751.00">
        <route edges="B2B3 B3A1 A1B1 B1B4"/>
    </vehicle>
    <vehicle id="238" depart="755.00">
        <route edges="A1B4 B4A1 A1B2 B2B1"/>
    </vehicle>
    <vehicle id="239" depart="758.00">
        <route edges="B1B2 B2A1 A1B2"/>
    </vehicle>
    <vehicle id="240" depart="761.00">
        <route edges="B3A1 A1B2 B2B3"/>
    </vehicle>
    <vehicle id="241" depart="777.00">
        <route edges="B2B1 B1A1"/>
    </vehicle>
    <vehicle id="242" depart="778.00">
        <route edges="A1B4 B4B3"/>
    </vehicle>
    <vehicle id="243" depart="779.00">
        <route edges="A1B1 B1A1 A1B4"/>
    </vehicle>
    <vehicle id="244" depart="779.00">
        <route edges="B4B3 B3B4"/>
    </vehicle>
    <vehicle id="245" depart="782.00">
        <route edges="B3B4 B4B1 B1A1"/>
    </vehicle>
    <vehicle id="246" depart="784.00">
        <route edges="A1B2 B2A1"/>
    </vehicle>
    <vehicle id="247" depart="784.00">
        <route edges="B1B4 B4A1 A1B3"/>
    </vehicle>
    <vehicle id="248" depart="785.00">
        <route edges="B2B1 B1A1 A1B4"/>
    </vehicle>
    <vehicle id="249" depart="787.00">
        <route edges="B2B1 B1A1 A1B3 B3A1"/>
    </vehicle>
    <vehicle id="250" depart="788.00">
        <route edges="B1B2 B2B1 B1B4"/>
    </vehicle>
    <vehicle id="251" depart="791.00">
        <route edges="B3B2 B2B1 B1B4"/>
    </vehicle>
    <vehicle id="252" depart="795.00">
        <route edges="B2A1 A1B2"/>
    </vehicle>
    <vehicle id="253" depart="796.00">
        <route edges="B1B2 B2B1 B1B4"/>
    </vehicle>
    <vehicle id="254" depart="807.00">
        <route edges="B1B4 B4B3 B3A1"/>
    </vehicle>
    <vehicle id="255" depart="812.00">
        <route edges="B1A1 A1B1 B1B4"/>
    </vehicle>
    <vehicle id="256" depart="814.00">
        <route edges="B4B3 B3A1 A1B3"/>
    </vehicle>
    <vehicle id="257" depart="814.00">
        <route edges="B4B3 B3B2 B2A1"/>
    </vehicle>
    <vehicle id="258" depart="815.00">
        <route edges="B3B2 B2B1 B1B2"/>
    </vehicle>
    <vehicle id="259" depart="816.00">
        <route edges="B1B4 B4A1 A1B2"/>
    </vehicle>
    <vehicle id="260" depart="817.00">
        <route edges="B1B4"/>
    </vehicle>
    <vehicle id="261" depart="823.00">
        <route edges="A1B2 B2A1 A1B4 B4A1"/>
    </vehicle>
    <vehicle id="262" depart="833.00">
        <route edges="B3B2 B2A1 A1B4"/>
    </vehicle>
    <vehicle id="263" depart="836.00">
        <route edges="B3B4 B4A1 A1B2"/>
    </vehicle>
    <vehicle id="264" depart="847.00">
        <route edges="B3A1 A1B2 B2B1"/>
    </vehicle>
    <vehicle id="265" depart="851.00">
        <route edges="A1B4 B4B3 B3B4"/>
    </vehicle>
    <vehicle id="266" depart="858.00">
        <route edges="B1B2 B2A1 A1B4 B4B3"/>
    </vehicle>
    <vehicle id="267" depart="860.00">
        <route edges="B3A1 A1B3"/>
    </vehicle>
    <vehicle id="268" depart="860.00">
        <route edges="A1B2 B2B1 B1A1"/>
    </vehicle>
    <vehicle id="269" depart="862.00">
        <route edges="A1B3"/>
    </vehicle>
    <vehicle id="270" depart="864.00">
        <route edges="B3B4 B4A1 A1B2"/>
    </vehicle>
    <vehicle id="271" depart="864.00">
        <route edges="B4B3 B3A1"/>
    </vehicle>
    <vehicle id="272" depart="866.00">
        <route edges="B2A1 A1B2 B2B3"/>
    </vehicle>
    <vehicle id="273" depart="867.00">
        <route edges="B2B3 B3A1"/>
    </vehicle>
    <vehicle id="274" depart="868.00">
        <route edges="B4B1 B1A1 A1B3 B3A1"/>
    </vehicle>
    <vehicle id="275" depart="870.00">
        <route edges="B4B3 B3A1 A1B1 B1B2"/>
    </vehicle>
    <vehicle id="276" depart="873.00">
        <route edges="B4B3 B3A1 A1B1 B1B2"/>
    </vehicle>
    <vehicle id="277" depart="875.00">
        <route edges="B2A1"/>
    </vehicle>
    <vehicle id="278" depart="875.00">
        <route edges="B3A1 A1B3 B3B4"/>
    </vehicle>
    <vehicle id="279" depart="876.00">
        <route edges="B2B3 B3A1 A1B1 B1B2"/>
    </vehicle>
    <vehicle id="280" depart="877.00">
        <route edges="A1B2 B2A1"/>
    </vehicle>
    <vehicle id="281" depart="881.00">
        <route edges="A1B1 B1B2"/>
    </vehicle>
    <vehicle id="282" depart="886.00">
        <route edges="B1A1 A1B3 B3A1"/>
    </vehicle>
    <vehicle id="283" depart="891.00">
        <route edges="B4B3 B3A1 A1B2"/>
    </vehicle>
    <vehicle id="284" depart="892.00">
        <route edges="B2B3 B3A1 A1B1 B1B4"/>
    </vehicle>
    <vehicle id="285" depart="895.00">
        <route edges="B2B3 B3B4 B4B3"/>
    </vehicle>
    <vehicle id="286" depart="896.00">
        <route edges="B3B2 B2A1 A1B1"/>
    </vehicle>
    <vehicle id="287" depart="898.00">
        <route edges="B4B1 B1B2 B2B3"/>
    </vehicle>
    <vehicle id="288" depart="898.00">
        <route edges="A1B4 B4A1 A1B2 B2B3"/>
    </vehicle>
    <vehicle id="289" depart="899.00">
        <route edges="B2B1 B1B4 B4B3"/>
    </vehicle>
    <vehicle id="290" depart="902.00">
        <route edges="B2A1 A1B3 B3B4"/>
    </vehicle>
    <vehicle id="291" depart="902.00">
        <route edges="B4A1 A1B4 B4B3"/>
    </vehicle>
    <vehicle id="292" depart="903.00">
        <route edges="A1B2 B2B3 B3A1"/>
    </vehicle>
    <vehicle id="293" depart="907.00">
        <route edges="A1B1 B1A1 A1B3 B3B2"/>
    </vehicle>
    <vehicle id="294" depart="911.00">
        <route edges="B4B3 B3B2 B2B1"/>
    </vehicle>
    <vehicle id="295" depart="913.00">
        <route edges="B2B3 B3A1 A1B1 B1B2"/>
    </vehicle>
    <vehicle id="296" depart="914.00">
        <route edges="B4B1 B1B4"/>
    </vehicle>
    <vehicle id="297" depart="918.00">
        <route edges="B3B4 B4B3 B3A1"/>
    </vehicle>
    <vehicle id="298" depart="920.00">
        <route edges="A1B1 B1A1 A1B3 B3A1"/>
    </vehicle>
    <vehicle id="299" depart="920.00">
        <route edges="B1B2"/>
    </vehicle>
    <vehicle id="300" depart="924.00">
        <route edges="B2B1 B1B4"/>
    </vehicle>
    <vehicle id="301" depart="931.00">
        <route edges="B1A1 A1B4 B4A1"/>
    </vehicle>
    <vehicle id="302" depart="932.00">
        <route edges="B4B3 B3B2 B2B3"/>
    </vehicle>
    <vehicle id="303" depart="933.00">
        <route edges="A1B3 B3A1 A1B2"/>
    </vehicle>
    <vehicle id="304" depart="937.00">
        <route edges="B3A1 A1B4 B4B1"/>
    </vehicle>
    <vehicle id="305" depart="938.00">
        <route edges="B1A1 A1B3 B3A1"/>
    </vehicle>
    <vehicle id="306" depart="942.00">
        <route edges="B3A1 A1B3"/>
    </vehicle>
    <vehicle id="307" depart="944.00">
        <route edges="B3B2 B2A1 A1B2"/>
    </vehicle>
    <vehicle id="308" depart="947.00">
        <route edges="B2B1 B1A1 A1B3 B3A1"/>
    </vehicle>
    <vehicle id="309" depart="952.00">
        <route edges="B1B2 B2A1 A1B3"/>
    </vehicle>
    <vehicle id="310" depart="953.00">