<configuration>
    <input>
        <net-file value="network.net.xml"/>
        <route-files value="ego-vehicle-only.rou.xml,network_cars.rou.xml,network_bicycles.rou.xml"/>
        <additional-files value="network.poly.xml"/>
    </input>

    <time>
        <begin value="0"/>
        <end value="10000"/>
        <step-length value="0.1"/>
    </time>
</configuration>
