<?xml version="1.0" encoding="UTF-8"?>

<!-- generated on 2023-07-17 14:17:05.989631 by randomTrips.py v1_17_0+0000-737931d58
<configuration>
    <net-file value="network.net.xml"/>
    <output-trip-file value="network_cars.trips.xml"/>
    <route-file value="network_cars.rou.xml"/>
    <random-depart value="True"/>
    <period value="3.0"/>
</configuration>
-->

<!-- generated on 2023-07-17 14:17:05 by Eclipse SUMO duarouter Version 1.17.0
<configuration xmlns:xsi="http://www.w3.org/2001/XMLSchema-instance" xsi:noNamespaceSchemaLocation="http://sumo.dlr.de/xsd/duarouterConfiguration.xsd">

    <input>
        <net-file value="network.net.xml"/>
        <route-files value="network_cars.trips.xml"/>
    </input>

    <output>
        <output-file value="network_cars.rou.xml"/>
        <alternatives-output value="NUL"/>
    </output>

    <time>
        <begin value="0"/>
        <end value="3600"/>
    </time>

    <report>
        <no-warnings value="true"/>
        <ignore-errors value="true"/>
        <no-step-log value="true"/>
    </report>

</configuration>
-->

<routes xmlns:xsi="http://www.w3.org/2001/XMLSchema-instance" xsi:noNamespaceSchemaLocation="http://sumo.dlr.de/xsd/routes_file.xsd">
    <vehicle id="bicycle_car_0" depart="1.00">
        <route edges="A1B4 B4A1 A1B2 B2B1"/>
    </vehicle>
    <vehicle id="bicycle_car_1" depart="2.00">
        <route edges="A1B3 B3A1 A1B1 B1B4"/>
    </vehicle>
    <vehicle id="bicycle_car_2" depart="6.00">
        <route edges="B3B2 B2A1"/>
    </vehicle>
    <vehicle id="bicycle_car_3" depart="8.00">
        <route edges="A1B1 B1A1"/>
    </vehicle>
    <vehicle id="bicycle_car_4" depart="13.00">
        <route edges="B1A1 A1B4 B4A1"/>
    </vehicle>
    <vehicle id="bicycle_car_5" depart="14.00">
        <route edges="A1B2 B2A1 A1B4"/>
    </vehicle>
    <vehicle id="bicycle_car_6" depart="22.00">
        <route edges="B1A1 A1B3 B3B4"/>
    </vehicle>
    <vehicle id="bicycle_car_7" depart="24.00">
        <route edges="B2B3 B3B4"/>
    </vehicle>
    <vehicle id="bicycle_car_8" depart="26.00">
        <route edges="A1B4 B4A1 A1B2"/>
    </vehicle>
    <vehicle id="bicycle_car_9" depart="29.00">
        <route edges="A1B4 B4A1 A1B3"/>
    </vehicle>
    <vehicle id="bicycle_car_10" depart="32.00">
        <route edges="B1A1 A1B3"/>
    </vehicle>
    <vehicle id="bicycle_car_11" depart="38.00">
        <route edges="A1B1 B1A1 A1B3 B3B4"/>
    </vehicle>
    <vehicle id="bicycle_car_12" depart="39.00">
        <route edges="B2B3 B3B4 B4A1"/>
    </vehicle>
    <vehicle id="bicycle_car_13" depart="41.00">
        <route edges="B4B1 B1B2 B2A1"/>
    </vehicle>
    <vehicle id="bicycle_car_14" depart="47.00">
        <route edges="B2A1 A1B1 B1A1"/>
    </vehicle>
    <vehicle id="bicycle_car_15" depart="50.00">
        <route edges="B1B4 B4A1 A1B1 B1A1"/>
    </vehicle>
    <vehicle id="bicycle_car_16" depart="51.00">
        <route edges="B2B1 B1A1 A1B2 B2A1"/>
    </vehicle>
    <vehicle id="bicycle_car_17" depart="57.00">
        <route edges="B2B3 B3B4 B4B1"/>
    </vehicle>
    <vehicle id="bicycle_car_18" depart="60.00">
        <route edges="B3B2 B2B3"/>
    </vehicle>
    <vehicle id="bicycle_car_19" depart="70.00">
        <route edges="A1B1 B1A1 A1B4"/>
    </vehicle>
    <vehicle id="bicycle_car_20" depart="79.00">
        <route edges="B3A1 A1B4 B4A1"/>
    </vehicle>
    <vehicle id="bicycle_car_21" depart="79.00">
        <route edges="B2B3 B3A1 A1B1"/>
    </vehicle>
    <vehicle id="bicycle_car_22" depart="80.00">
        <route edges="B3B4 B4A1"/>
    </vehicle>
    <vehicle id="bicycle_car_23" depart="83.00">
        <route edges="B2B3 B3B4"/>
    </vehicle>
    <vehicle id="bicycle_car_24" depart="86.00">
        <route edges="A1B3 B3B2 B2B1"/>
    </vehicle>
    <vehicle id="bicycle_car_25" depart="96.00">
        <route edges="B2A1 A1B1 B1A1"/>
    </vehicle>
    <vehicle id="bicycle_car_26" depart="100.00">
        <route edges="B4B3 B3A1 A1B1 B1B4"/>
    </vehicle>
    <vehicle id="bicycle_car_27" depart="101.00">
        <route edges="B4A1 A1B4 B4B3"/>
    </vehicle>
    <vehicle id="bicycle_car_28" depart="102.00">
        <route edges="B2A1 A1B1 B1B4"/>
    </vehicle>
    <vehicle id="bicycle_car_29" depart="105.00">
        <route edges="B1B2 B2A1 A1B2"/>
    </vehicle>
    <vehicle id="bicycle_car_30" depart="108.00">
        <route edges="A1B3 B3A1 A1B1 B1B4"/>
    </vehicle>
    <vehicle id="bicycle_car_31" depart="110.00">
        <route edges="B2A1 A1B3 B3A1"/>
    </vehicle>
    <vehicle id="bicycle_car_32" depart="111.00">
        <route edges="B1B4 B4B3 B3B4"/>
    </vehicle>
    <vehicle id="bicycle_car_33" depart="113.00">
        <route edges="A1B1 B1A1 A1B2"/>
    </vehicle>
    <vehicle id="bicycle_car_34" depart="117.00">
        <route edges="B1A1 A1B2"/>
    </vehicle>
    <vehicle id="bicycle_car_35" depart="118.00">
        <route edges="B3B4 B4A1"/>
    </vehicle>
    <vehicle id="bicycle_car_36" depart="122.00">
        <route edges="B4A1 A1B1"/>
    </vehicle>
    <vehicle id="bicycle_car_37" depart="127.00">
        <route edges="B4A1 A1B2 B2A1"/>
    </vehicle>
    <vehicle id="bicycle_car_38" depart="128.00">
        <route edges="A1B1 B1B2 B2B1"/>
    </vehicle>
    <vehicle id="bicycle_car_39" depart="130.00">
        <route edges="B2B3 B3B2 B2A1"/>
    </vehicle>
    <vehicle id="bicycle_car_40" depart="131.00">
        <route edges="B2A1 A1B1"/>
    </vehicle>
    <vehicle id="bicycle_car_41" depart="147.00">
        <route edges="B1A1 A1B3"/>
    </vehicle>
    <vehicle id="bicycle_car_42" depart="156.00">
        <route edges="B1A1 A1B4 B4B1"/>
    </vehicle>
    <vehicle id="bicycle_car_43" depart="158.00">
        <route edges="B2A1 A1B1"/>
    </vehicle>
    <vehicle id="bicycle_car_44" depart="162.00">
        <route edges="B3A1 A1B3 B3B4"/>
    </vehicle>
    <vehicle id="bicycle_car_45" depart="163.00">
        <route edges="B3B2 B2B1 B1A1"/>
    </vehicle>
    <vehicle id="bicycle_car_46" depart="164.00">
        <route edges="A1B1 B1B4"/>
    </vehicle>
    <vehicle id="bicycle_car_47" depart="168.00">
        <route edges="A1B4 B4A1"/>
    </vehicle>
    <vehicle id="bicycle_car_48" depart="171.00">
        <route edges="A1B2 B2A1 A1B4 B4B3"/>
    </vehicle>
    <vehicle id="bicycle_car_49" depart="177.00">
        <route edges="B3A1 A1B3"/>
    </vehicle>
    <vehicle id="bicycle_car_50" depart="180.00">
        <route edges="B4B1 B1A1"/>
    </vehicle>
    <vehicle id="bicycle_car_51" depart="181.00">
        <route edges="B3B2 B2B1 B1B4"/>
    </vehicle>
    <vehicle id="bicycle_car_52" depart="186.00">
        <route edges="B2A1"/>
    </vehicle>
    <vehicle id="bicycle_car_53" depart="187.00">
        <route edges="B2A1 A1B3"/>
    </vehicle>
    <vehicle id="bicycle_car_54" depart="189.00">
        <route edges="A1B4 B4A1 A1B2 B2B3"/>
    </vehicle>
    <vehicle id="bicycle_car_55" depart="192.00">
        <route edges="B3B2 B2A1 A1B3"/>
    </vehicle>
    <vehicle id="bicycle_car_56" depart="205.00">
        <route edges="A1B2 B2B3 B3B4"/>
    </vehicle>
    <vehicle id="bicycle_car_57" depart="205.00">
        <route edges="B4A1 A1B1 B1B2"/>
    </vehicle>
    <vehicle id="bicycle_car_58" depart="205.00">
        <route edges="B3B4 B4B1 B1A1"/>
    </vehicle>
    <vehicle id="bicycle_car_59" depart="207.00">
        <route edges="A1B1 B1A1 A1B3 B3B2"/>
    </vehicle>
    <vehicle id="bicycle_car_60" depart="208.00">
        <route edges="B4A1 A1B2 B2B3"/>
    </vehicle>
    <vehicle id="bicycle_car_61" depart="210.00">
        <route edges="B3A1 A1B4 B4A1"/>
    </vehicle>
    <vehicle id="bicycle_car_62" depart="213.00">
        <route edges="B2A1"/>
    </vehicle>
    <vehicle id="bicycle_car_63" depart="219.00">
        <route edges="B1B2 B2B3 B3B4"/>
    </vehicle>
    <vehicle id="bicycle_car_64" depart="221.00">
        <route edges="B1B4 B4B1"/>
    </vehicle>
    <vehicle id="bicycle_car_65" depart="223.00">
        <route edges="B4A1 A1B4 B4B3"/>
    </vehicle>
    <vehicle id="bicycle_car_66" depart="229.00">
        <route edges="A1B4 B4B1 B1B4"/>
    </vehicle>
    <vehicle id="bicycle_car_67" depart="232.00">
        <route edges="B4A1 A1B1 B1B4"/>
    </vehicle>
    <vehicle id="bicycle_car_68" depart="234.00">
        <route edges="B1B2 B2A1"/>
    </vehicle>
    <vehicle id="bicycle_car_69" depart="237.00">
        <route edges="B4B1 B1B4"/>
    </vehicle>
    <vehicle id="bicycle_car_70" depart="239.00">
        <route edges="B4B3 B3B4"/>
    </vehicle>
    <vehicle id="bicycle_car_71" depart="240.00">
        <route edges="B3A1 A1B3"/>
    </vehicle>
    <vehicle id="bicycle_car_72" depart="241.00">
        <route edges="B4B3 B3A1 A1B3"/>
    </vehicle>
    <vehicle id="bicycle_car_73" depart="246.00">
        <route edges="B4B3 B3A1 A1B1 B1B2"/>
    </vehicle>
    <vehicle id="bicycle_car_74" depart="248.00">
        <route edges="A1B2 B2A1 A1B4 B4A1"/>
    </vehicle>
    <vehicle id="bicycle_car_75" depart="249.00">
        <route edges="A1B2 B2A1 A1B4 B4B1"/>
    </vehicle>
    <vehicle id="bicycle_car_76" depart="255.00">
        <route edges="A1B1 B1A1 A1B3"/>
    </vehicle>
    <vehicle id="bicycle_car_77" depart="260.00">
        <route edges="B4A1 A1B4 B4B3"/>
    </vehicle>
    <vehicle id="bicycle_car_78" depart="262.00">
        <route edges="A1B2 B2B3 B3B4"/>
    </vehicle>
    <vehicle id="bicycle_car_79" depart="263.00">
        <route edges="B1A1 A1B2 B2B3"/>
    </vehicle>
    <vehicle id="bicycle_car_80" depart="267.00">
        <route edges="B1B4 B4A1 A1B2"/>
    </vehicle>
    <vehicle id="bicycle_car_81" depart="271.00">
        <route edges="B1B2 B2B3 B3A1"/>
    </vehicle>
    <vehicle id="bicycle_car_82" depart="276.00">
        <route edges="B2B1 B1B4 B4B3"/>
    </vehicle>
    <vehicle id="bicycle_car_83" depart="278.00">
        <route edges="B3A1 A1B4 B4B1"/>
    </vehicle>
    <vehicle id="bicycle_car_84" depart="280.00">
        <route edges="B2A1 A1B2 B2B1"/>
    </vehicle>
    <vehicle id="bicycle_car_85" depart="281.00">
        <route edges="B2B3 B3A1 A1B4"/>
    </vehicle>
    <vehicle id="bicycle_car_86" depart="281.00">
        <route edges="B3A1 A1B1 B1A1"/>
    </vehicle>
    <vehicle id="bicycle_car_87" depart="282.00">
        <route edges="A1B4 B4A1 A1B2"/>
    </vehicle>
    <vehicle id="bicycle_car_88" depart="283.00">
        <route edges="B4B3 B3B4"/>
    </vehicle>
    <vehicle id="bicycle_car_89" depart="284.00">
        <route edges="B3B2 B2A1 A1B2"/>
    </vehicle>
    <vehicle id="bicycle_car_90" depart="284.00">
        <route edges="A1B3 B3A1 A1B1 B1A1"/>
    </vehicle>
    <vehicle id="bicycle_car_91" depart="286.00">
        <route edges="A1B1 B1B2"/>
    </vehicle>
    <vehicle id="bicycle_car_92" depart="290.00">
        <route edges="A1B1 B1B2"/>
    </vehicle>
    <vehicle id="bicycle_car_93" depart="290.00">
        <route edges="B1B4 B4A1 A1B4"/>
    </vehicle>
    <vehicle id="bicycle_car_94" depart="292.00">
        <route edges="B1B4 B4B3 B3A1"/>
    </vehicle>
    <vehicle id="bicycle_car_95" depart="297.00">
        <route edges="A1B3"/>
    </vehicle>
    <vehicle id="bicycle_car_96" depart="298.00">
        <route edges="B2B3 B3A1 A1B1 B1B4"/>
    </vehicle>
    <vehicle id="bicycle_car_97" depart="300.00">
        <route edges="B3A1 A1B2 B2A1"/>
    </vehicle>
    <vehicle id="bicycle_car_98" depart="303.00">
        <route edges="B2B3 B3A1 A1B4"/>
    </vehicle>
    <vehicle id="bicycle_car_99" depart="308.00">
        <route edges="B3A1 A1B2 B2A1"/>
    </vehicle>
    <vehicle id="bicycle_car_100" depart="308.00">
        <route edges="B3A1 A1B4 B4B1"/>
    </vehicle>
    <vehicle id="bicycle_car_101" depart="311.00">
        <route edges="B2A1 A1B1 B1A1"/>
    </vehicle>
    <vehicle id="bicycle_car_102" depart="317.00">
        <route edges="B2B1 B1A1 A1B2"/>
    </vehicle>
    <vehicle id="bicycle_car_103" depart="322.00">
        <route edges="B4B3"/>
    </vehicle>
    <vehicle id="bicycle_car_104" depart="322.00">
        <route edges="B1A1 A1B4 B4B3"/>
    </vehicle>
    <vehicle id="bicycle_car_105" depart="326.00">
        <route edges="B3B2 B2A1"/>
    </vehicle>
    <vehicle id="bicycle_car_106" depart="328.00">
        <route edges="B1A1 A1B4 B4B3"/>
    </vehicle>
    <vehicle id="bicycle_car_107" depart="330.00">
        <route edges="B4A1 A1B2"/>
    </vehicle>
    <vehicle id="bicycle_car_108" depart="332.00">
        <route edges="B1B4 B4B1 B1B2"/>
    </vehicle>
    <vehicle id="bicycle_car_109" depart="335.00">
        <route edges="B1A1 A1B3 B3B2"/>
    </vehicle>
    <vehicle id="bicycle_car_110" depart="335.00">
        <route edges="A1B1 B1B4 B4A1"/>
    </vehicle>
    <vehicle id="bicycle_car_111" depart="343.00">
        <route edges="B1B4 B4A1 A1B1"/>
    </vehicle>
    <vehicle id="bicycle_car_112" depart="347.00">
        <route edges="B4A1 A1B3 B3B4"/>
    </vehicle>
    <vehicle id="bicycle_car_113" depart="348.00">
        <route edges="B4B3 B3B4 B4B1"/>
    </vehicle>
    <vehicle id="bicycle_car_114" depart="350.00">
        <route edges="B3B2 B2A1 A1B4 B4A1"/>
    </vehicle>
    <vehicle id="bicycle_car_115" depart="350.00">
        <route edges="B4B1 B1A1 A1B3 B3B4"/>
    </vehicle>
    <vehicle id="bicycle_car_116" depart="354.00">
        <route edges="A1B4 B4B3 B3B4"/>
    </vehicle>
    <vehicle id="bicycle_car_117" depart="356.00">
        <route edges="A1B4"/>
    </vehicle>
    <vehicle id="bicycle_car_118" depart="372.00">
        <route edges="B1A1 A1B3 B3B4"/>
    </vehicle>
    <vehicle id="bicycle_car_119" depart="378.00">
        <route edges="B3B4 B4B3 B3A1"/>
    </vehicle>
    <vehicle id="bicycle_car_120" depart="379.00">
        <route edges="A1B3 B3A1 A1B2"/>
    </vehicle>
    <vehicle id="bicycle_car_121" depart="381.00">
        <route edges="B3A1 A1B1"/>
    </vehicle>
    <vehicle id="bicycle_car_122" depart="382.00">
        <route edges="B3B4 B4A1 A1B1"/>
    </vehicle>
    <vehicle id="bicycle_car_123" depart="382.00">
        <route edges="B1B2 B2A1 A1B3"/>
    </vehicle>
    <vehicle id="bicycle_car_124" depart="383.00">
        <route edges="B4B1 B1B2"/>
    </vehicle>
    <vehicle id="bicycle_car_125" depart="386.00">
        <route edges="B1B4 B4A1 A1B4"/>
    </vehicle>
    <vehicle id="bicycle_car_126" depart="396.00">
        <route edges="B3B4 B4B1"/>
    </vehicle>
    <vehicle id="bicycle_car_127" depart="397.00">
        <route edges="B1B2 B2B1"/>
    </vehicle>
    <vehicle id="bicycle_car_128" depart="401.00">
        <route edges="B1A1 A1B3"/>
    </vehicle>
    <vehicle id="bicycle_car_129" depart="403.00">
        <route edges="B4B1 B1B4 B4B3"/>
    </vehicle>
    <vehicle id="bicycle_car_130" depart="406.00">
        <route edges="B4B3 B3A1 A1B1 B1A1"/>
    </vehicle>
    <vehicle id="bicycle_car_131" depart="409.00">
        <route edges="B4A1 A1B3 B3B4"/>
    </vehicle>
    <vehicle id="bicycle_car_132" depart="411.00">
        <route edges="B2A1 A1B2"/>
    </vehicle>
    <vehicle id="bicycle_car_133" depart="413.00">
        <route edges="B3B4 B4A1 A1B4"/>
    </vehicle>
    <vehicle id="bicycle_car_134" depart="417.00">
        <route edges="B3A1"/>
    </vehicle>
    <vehicle id="bicycle_car_135" depart="418.00">
        <route edges="B1B4 B4A1"/>
    </vehicle>
    <vehicle id="bicycle_car_136" depart="419.00">
        <route edges="B2B1 B1A1 A1B2"/>
    </vehicle>
    <vehicle id="bicycle_car_137" depart="420.00">
        <route edges="B1B4 B4A1 A1B1 B1A1"/>
    </vehicle>
    <vehicle id="bicycle_car_138" depart="421.00">
        <route edges="A1B2 B2B1 B1B2"/>
    </vehicle>
    <vehicle id="bicycle_car_139" depart="424.00">
        <route edges="B3B2 B2B1 B1A1"/>
    </vehicle>
    <vehicle id="bicycle_car_140" depart="432.00">
        <route edges="B1B4 B4B3 B3A1"/>
    </vehicle>
    <vehicle id="bicycle_car_141" depart="435.00">
        <route edges="B1B2 B2B3 B3A1"/>
    </vehicle>
    <vehicle id="bicycle_car_142" depart="436.00">
        <route edges="B2A1 A1B2 B2B3"/>
    </vehicle>
    <vehicle id="bicycle_car_143" depart="438.00">
        <route edges="B4B3 B3A1 A1B1 B1B2"/>
    </vehicle>
    <vehicle id="bicycle_car_144" depart="442.00">
        <route edges="B2B3 B3A1"/>
    </vehicle>
    <vehicle id="bicycle_car_145" depart="442.00">
        <route edges="B3A1 A1B2 B2A1"/>
    </vehicle>
    <vehicle id="bicycle_car_146" depart="444.00">
        <route edges="B3B2 B2A1 A1B3 B3A1"/>
    </vehicle>
    <vehicle id="bicycle_car_147" depart="447.00">
        <route edges="A1B2 B2A1 A1B1"/>
    </vehicle>
    <vehicle id="bicycle_car_148" depart="449.00">
        <route edges="A1B1 B1B4 B4B3"/>
    </vehicle>
    <vehicle id="bicycle_car_149" depart="456.00">
        <route edges="A1B2 B2A1 A1B4"/>
    </vehicle>
    <vehicle id="bicycle_car_150" depart="456.00">
        <route edges="B2B1 B1B4"/>
    </vehicle>
    <vehicle id="bicycle_car_151" depart="458.00">
        <route edges="B1B2 B2A1 A1B4 B4B3"/>
    </vehicle>
    <vehicle id="bicycle_car_152" depart="458.00">
        <route edges="B3B2 B2B1"/>
    </vehicle>
    <vehicle id="bicycle_car_153" depart="467.00">
        <route edges="B2B3 B3B2"/>
    </vehicle>
    <vehicle id="bicycle_car_154" depart="468.00">
        <route edges="B4B1 B1A1 A1B3 B3A1"/>
    </vehicle>
    <vehicle id="bicycle_car_155" depart="469.00">
        <route edges="B4A1 A1B2 B2B3"/>
    </vehicle>
    <vehicle id="bicycle_car_156" depart="469.00">
        <route edges="B4B3 B3A1 A1B1 B1A1"/>
    </vehicle>
    <vehicle id="bicycle_car_157" depart="472.00">
        <route edges="B3B2 B2A1 A1B4"/>
    </vehicle>
    <vehicle id="bicycle_car_158" depart="472.00">
        <route edges="B2A1 A1B4"/>
    </vehicle>
    <vehicle id="bicycle_car_159" depart="473.00">
        <route edges="B1B2 B2A1 A1B4 B4B3"/>
    </vehicle>
    <vehicle id="bicycle_car_160" depart="485.00">
        <route edges="B1B2 B2A1 A1B4 B4B1"/>
    </vehicle>
    <vehicle id="bicycle_car_161" depart="489.00">
        <route edges="B3A1 A1B1"/>
    </vehicle>
    <vehicle id="bicycle_car_162" depart="491.00">
        <route edges="B1A1 A1B4 B4B3"/>
    </vehicle>
    <vehicle id="bicycle_car_163" depart="494.00">
        <route edges="B4B3 B3A1 A1B4 B4A1"/>
    </vehicle>
    <vehicle id="bicycle_car_164" depart="495.00">
        <route edges="A1B2 B2A1 A1B4"/>
    </vehicle>
    <vehicle id="bicycle_car_165" depart="495.00">
        <route edges="B3A1 A1B4 B4B3"/>
    </vehicle>
    <vehicle id="bicycle_car_166" depart="497.00">
        <route edges="A1B1 B1B2"/>
    </vehicle>
    <vehicle id="bicycle_car_167" depart="510.00">
        <route edges="B4B3 B3B4"/>
    </vehicle>
    <vehicle id="bicycle_car_168" depart="511.00">
        <route edges="A1B4 B4A1"/>
    </vehicle>
    <vehicle id="bicycle_car_169" depart="515.00">
        <route edges="B2B1 B1B2 B2B3"/>
    </vehicle>
    <vehicle id="bicycle_car_170" depart="517.00">
        <route edges="B4A1 A1B4"/>
    </vehicle>
    <vehicle id="bicycle_car_171" depart="517.00">
        <route edges="B3B4"/>
    </vehicle>
    <vehicle id="bicycle_car_172" depart="518.00">
        <route edges="B2B3 B3A1 A1B1 B1A1"/>
    </vehicle>
    <vehicle id="bicycle_car_173" depart="521.00">
        <route edges="B4B3"/>
    </vehicle>
    <vehicle id="bicycle_car_174" depart="522.00">
        <route edges="B2B1 B1A1 A1B3 B3B4"/>
    </vehicle>
    <vehicle id="bicycle_car_175" depart="522.00">
        <route edges="A1B2 B2A1 A1B4 B4A1"/>
    </vehicle>
    <vehicle id="bicycle_car_176" depart="525.00">
        <route edges="A1B3 B3A1 A1B1 B1B2"/>
    </vehicle>
    <vehicle id="bicycle_car_177" depart="535.00">
        <route edges="B3B4 B4A1 A1B2 B2B3"/>
    </vehicle>
    <vehicle id="bicycle_car_178" depart="536.00">
        <route edges="A1B1 B1A1"/>
    </vehicle>
    <vehicle id="bicycle_car_179" depart="541.00">
        <route edges="A1B3 B3A1 A1B1 B1B4"/>
    </vehicle>
    <vehicle id="bicycle_car_180" depart="542.00">
        <route edges="A1B2"/>
    </vehicle>
    <vehicle id="bicycle_car_181" depart="546.00">
        <route edges="B2A1 A1B1 B1B2"/>
    </vehicle>
    <vehicle id="bicycle_car_182" depart="550.00">
        <route edges="B2B3 B3B2 B2A1"/>
    </vehicle>
    <vehicle id="bicycle_car_183" depart="555.00">
        <route edges="A1B4 B4A1 A1B2 B2B3"/>
    </vehicle>
    <vehicle id="bicycle_car_184" depart="566.00">
        <route edges="B3B2 B2A1 A1B4 B4B1"/>
    </vehicle>
    <vehicle id="bicycle_car_185" depart="566.00">
        <route edges="B3A1 A1B1 B1A1"/>
    </vehicle>
    <vehicle id="bicycle_car_186" depart="571.00">
        <route edges="B3A1 A1B1"/>
    </vehicle>
    <vehicle id="bicycle_car_187" depart="571.00">
        <route edges="B4B3 B3A1 A1B4 B4A1"/>
    </vehicle>
    <vehicle id="bicycle_car_188" depart="574.00">
        <route edges="B1B4 B4A1 A1B2"/>
    </vehicle>
    <vehicle id="bicycle_car_189" depart="585.00">
        <route edges="B3B2 B2A1"/>
    </vehicle>
    <vehicle id="bicycle_car_190" depart="603.00">
        <route edges="B4B1 B1B2"/>
    </vehicle>
    <vehicle id="bicycle_car_191" depart="604.00">
        <route edges="A1B3"/>
    </vehicle>
    <vehicle id="bicycle_car_192" depart="606.00">
        <route edges="B2B3"/>
    </vehicle>
    <vehicle id="bicycle_car_193" depart="610.00">
        <route edges="B3B2 B2B1 B1B4"/>
    </vehicle>
    <vehicle id="bicycle_car_194" depart="611.00">
        <route edges="B2B3 B3A1 A1B1 B1A1"/>
    </vehicle>
    <vehicle id="bicycle_car_195" depart="617.00">
        <route edges="B2B1 B1B4"/>
    </vehicle>
    <vehicle id="bicycle_car_196" depart="621.00">
        <route edges="B3B4 B4A1 A1B2"/>
    </vehicle>
    <vehicle id="bicycle_car_197" depart="624.00">
        <route edges="B3A1 A1B4 B4B1"/>
    </vehicle>
    <vehicle id="bicycle_car_198" depart="625.00">
        <route edges="B2B1 B1B4 B4A1"/>
    </vehicle>
    <vehicle id="bicycle_car_199" depart="626.00">
        <route edges="B1B4 B4B1"/>
    </vehicle>
    <vehicle id="bicycle_car_200" depart="626.00">
        <route edges="B1B4 B4A1"/>
    </vehicle>
    <vehicle id="bicycle_car_201" depart="626.00">
        <route edges="B1B4 B4B3 B3B2"/>
    </vehicle>
    <vehicle id="bicycle_car_202" depart="633.00">
        <route edges="B1B2"/>
    </vehicle>
    <vehicle id="bicycle_car_203" depart="634.00">
        <route edges="B1A1 A1B4 B4B3"/>
    </vehicle>
    <vehicle id="bicycle_car_204" depart="636.00">
        <route edges="B3A1 A1B2 B2A1"/>
    </vehicle>
    <vehicle id="bicycle_car_205" depart="636.00">
        <route edges="A1B2"/>
    </vehicle>
    <vehicle id="bicycle_car_206" depart="643.00">
        <route edges="B1B4 B4B3 B3B2"/>
    </vehicle>
    <vehicle id="bicycle_car_207" depart="644.00">
        <route edges="B1B2 B2A1 A1B3"/>
    </vehicle>
    <vehicle id="bicycle_car_208" depart="646.00">
        <route edges="A1B1 B1B4 B4B3"/>
    </vehicle>
    <vehicle id="bicycle_car_209" depart="647.00">
        <route edges="B2B1 B1A1 A1B3 B3A1"/>
    </vehicle>
    <vehicle id="bicycle_car_210" depart="651.00">
        <route edges="B1B4 B4A1"/>
    </vehicle>
    <vehicle id="bicycle_car_211" depart="652.00">
        <route edges="B4B3 B3A1 A1B1 B1B4"/>
    </vehicle>
    <vehicle id="bicycle_car_212" depart="653.00">
        <route edges="B4B1 B1A1 A1B1"/>
    </vehicle>
    <vehicle id="bicycle_car_213" depart="655.00">
        <route edges="B1A1"/>
    </vehicle>
    <vehicle id="bicycle_car_214" depart="661.00">
        <route edges="A1B2 B2B1"/>
    </vehicle>
    <vehicle id="bicycle_car_215" depart="661.00">
        <route edges="A1B3 B3B2 B2A1"/>
    </vehicle>
    <vehicle id="bicycle_car_216" depart="665.00">
        <route edges="B4A1 A1B1 B1B2"/>
    </vehicle>
    <vehicle id="bicycle_car_217" depart="666.00">
        <route edges="B2B1 B1A1 A1B2"/>
    </vehicle>
    <vehicle id="bicycle_car_218" depart="669.00">
        <route edges="B1A1 A1B4"/>
    </vehicle>
    <vehicle id="bicycle_car_219" depart="670.00">
        <route edges="B1B4 B4A1 A1B2 B2B1"/>
    </vehicle>
    <vehicle id="bicycle_car_220" depart="674.00">
        <route edges="B3B4 B4A1 A1B2 B2B3"/>
    </vehicle>
    <vehicle id="bicycle_car_221" depart="676.00">
        <route edges="B3A1 A1B2 B2B1"/>
    </vehicle>
    <vehicle id="bicycle_car_222" depart="676.00">
        <route edges="B2B3 B3A1"/>
    </vehicle>
    <vehicle id="bicycle_car_223" depart="681.00">
        <route edges="B3B2 B2A1 A1B1"/>
    </vehicle>
    <vehicle id="bicycle_car_224" depart="687.00">
        <route edges="B1A1 A1B3 B3B4"/>
    </vehicle>
    <vehicle id="bicycle_car_225" depart="695.00">
        <route edges="B4B1 B1B2"/>
    </vehicle>
    <vehicle id="bicycle_car_226" depart="700.00">
        <route edges="A1B3"/>
    </vehicle>
    <vehicle id="bicycle_car_227" depart="712.00">
        <route edges="B3A1 A1B2"/>
    </vehicle>
    <vehicle id="bicycle_car_228" depart="720.00">
        <route edges="B3B2 B2A1 A1B4 B4B3"/>
    </vehicle>
    <vehicle id="bicycle_car_229" depart="721.00">
        <route edges="A1B2 B2B1"/>
    </vehicle>
    <vehicle id="bicycle_car_230" depart="725.00">
        <route edges="B1B4 B4A1 A1B2 B2A1"/>
    </vehicle>
    <vehicle id="bicycle_car_231" depart="731.00">
        <route edges="A1B3 B3A1 A1B1 B1A1"/>
    </vehicle>
    <vehicle id="bicycle_car_232" depart="731.00">
        <route edges="B1B2 B2A1 A1B4 B4B3"/>
    </vehicle>
    <vehicle id="bicycle_car_233" depart="734.00">
        <route edges="B2B3 B3B4 B4B1"/>
    </vehicle>
    <vehicle id="bicycle_car_234" depart="734.00">
        <route edges="A1B3 B3B4"/>
    </vehicle>
    <vehicle id="bicycle_car_235" depart="744.00">
        <route edges="A1B1 B1A1 A1B2"/>
    </vehicle>
    <vehicle id="bicycle_car_236" depart="744.00">
        <route edges="B2A1 A1B1 B1B4"/>
    </vehicle>
    <vehicle id="bicycle_car_237" depart="751.00">
        <route edges="B2B3 B3A1 A1B1 B1B4"/>
    </vehicle>
    <vehicle id="bicycle_car_238" depart="755.00">
        <route edges="A1B4 B4A1 A1B2 B2B1"/>
    </vehicle>
    <vehicle id="bicycle_car_239" depart="758.00">
        <route edges="B1B2 B2A1 A1B2"/>
    </vehicle>
    <vehicle id="bicycle_car_240" depart="761.00">
        <route edges="B3A1 A1B2 B2B3"/>
    </vehicle>
    <vehicle id="bicycle_car_241" depart="777.00">
        <route edges="B2B1 B1A1"/>
    </vehicle>
    <vehicle id="bicycle_car_242" depart="778.00">
        <route edges="A1B4 B4B3"/>
    </vehicle>
    <vehicle id="bicycle_car_243" depart="779.00">
        <route edges="A1B1 B1A1 A1B4"/>
    </vehicle>
    <vehicle id="bicycle_car_244" depart="779.00">
        <route edges="B4B3 B3B4"/>
    </vehicle>
    <vehicle id="bicycle_car_245" depart="782.00">
        <route edges="B3B4 B4B1 B1A1"/>
    </vehicle>
    <vehicle id="bicycle_car_246" depart="784.00">
        <route edges="A1B2 B2A1"/>
    </vehicle>
    <vehicle id="bicycle_car_247" depart="784.00">
        <route edges="B1B4 B4A1 A1B3"/>
    </vehicle>
    <vehicle id="bicycle_car_248" depart="785.00">
        <route edges="B2B1 B1A1 A1B4"/>
    </vehicle>
    <vehicle id="bicycle_car_249" depart="787.00">
        <route edges="B2B1 B1A1 A1B3 B3A1"/>
    </vehicle>
    <vehicle id="bicycle_car_250" depart="788.00">
        <route edges="B1B2 B2B1 B1B4"/>
    </vehicle>
    <vehicle id="bicycle_car_251" depart="791.00">
        <route edges="B3B2 B2B1 B1B4"/>
    </vehicle>
    <vehicle id="bicycle_car_252" depart="795.00">
        <route edges="B2A1 A1B2"/>
    </vehicle>
    <vehicle id="bicycle_car_253" depart="796.00">
        <route edges="B1B2 B2B1 B1B4"/>
    </vehicle>
    <vehicle id="bicycle_car_254" depart="807.00">
        <route edges="B1B4 B4B3 B3A1"/>
    </vehicle>
    <vehicle id="bicycle_car_255" depart="812.00">
        <route edges="B1A1 A1B1 B1B4"/>
    </vehicle>
    <vehicle id="bicycle_car_256" depart="814.00">
        <route edges="B4B3 B3A1 A1B3"/>
    </vehicle>
    <vehicle id="bicycle_car_257" depart="814.00">
        <route edges="B4B3 B3B2 B2A1"/>
    </vehicle>
    <vehicle id="bicycle_car_258" depart="815.00">
        <route edges="B3B2 B2B1 B1B2"/>
    </vehicle>
    <vehicle id="bicycle_car_259" depart="816.00">
        <route edges="B1B4 B4A1 A1B2"/>
    </vehicle>
    <vehicle id="bicycle_car_260" depart="817.00">
        <route edges="B1B4"/>
    </vehicle>
    <vehicle id="bicycle_car_261" depart="823.00">
        <route edges="A1B2 B2A1 A1B4 B4A1"/>
    </vehicle>
    <vehicle id="bicycle_car_262" depart="833.00">
        <route edges="B3B2 B2A1 A1B4"/>
    </vehicle>
    <vehicle id="bicycle_car_263" depart="836.00">
        <route edges="B3B4 B4A1 A1B2"/>
    </vehicle>
    <vehicle id="bicycle_car_264" depart="847.00">
        <route edges="B3A1 A1B2 B2B1"/>
    </vehicle>
    <vehicle id="bicycle_car_265" depart="851.00">
        <route edges="A1B4 B4B3 B3B4"/>
    </vehicle>
    <vehicle id="bicycle_car_266" depart="858.00">
        <route edges="B1B2 B2A1 A1B4 B4B3"/>
    </vehicle>
    <vehicle id="bicycle_car_267" depart="860.00">
        <route edges="B3A1 A1B3"/>
    </vehicle>
    <vehicle id="bicycle_car_268" depart="860.00">
        <route edges="A1B2 B2B1 B1A1"/>
    </vehicle>
    <vehicle id="bicycle_car_269" depart="862.00">
        <route edges="A1B3"/>
    </vehicle>
    <vehicle id="bicycle_car_270" depart="864.00">
        <route edges="B3B4 B4A1 A1B2"/>
    </vehicle>
    <vehicle id="bicycle_car_271" depart="864.00">
        <route edges="B4B3 B3A1"/>
    </vehicle>
    <vehicle id="bicycle_car_272" depart="866.00">
        <route edges="B2A1 A1B2 B2B3"/>
    </vehicle>
    <vehicle id="bicycle_car_273" depart="867.00">
        <route edges="B2B3 B3A1"/>
    </vehicle>
    <vehicle id="bicycle_car_274" depart="868.00">
        <route edges="B4B1 B1A1 A1B3 B3A1"/>
    </vehicle>